data_Dibromobenzene-DBB
_audit_creation_date               2020-04-16
_audit_creation_method
;
Olex2 1.2
(compiled 2018.05.29 svn.r3508 for OlexSys, GUI svn.r5506)
;
_shelx_SHELXL_version_number       '2018/3'
_audit_contact_author_address      ?
_audit_contact_author_email        ?
_audit_contact_author_name         ''
_audit_contact_author_phone        ?
_publ_contact_author_id_orcid      ?
_publ_section_references
;
Dolomanov, O.V., Bourhis, L.J., Gildea, R.J, Howard, J.A.K. & Puschmann, H.
 (2009), J. Appl. Cryst. 42, 339-341.

Sheldrick, G.M. (2008). Acta Cryst. A64, 112-122.
;
_chemical_name_common              1,4-Dibromobenzene
_chemical_name_systematic          ?
_chemical_formula_moiety           'C6 H4 Br2'
_chemical_formula_sum              'C6 H4 Br2'
_chemical_formula_weight           235.91
_chemical_melting_point            ?
loop_
  _atom_type_symbol
  _atom_type_description
  _atom_type_scat_dispersion_real
  _atom_type_scat_dispersion_imag
  _atom_type_scat_source
 'C' 'C' 0.0033 0.0016 'International Tables Vol C Tables 4.2.6.8 and 6.1.1.4'
 'H' 'H' 0.0000 0.0000 'International Tables Vol C Tables 4.2.6.8 and 6.1.1.4'
 'Br' 'Br' -0.2901 2.4595
 'International Tables Vol C Tables 4.2.6.8 and 6.1.1.4'

_shelx_space_group_comment
;
The symmetry employed for this shelxl refinement is uniquely defined
by the following loop, which should always be used as a source of
symmetry information in preference to the above space-group names.
They are only intended as comments.
;
_space_group_crystal_system        'monoclinic'
_space_group_IT_number             14
_space_group_name_H-M_alt          'P 1 21/n 1'
_space_group_name_Hall             '-P 2yn'
loop_
  _space_group_symop_operation_xyz
 'x, y, z'
 '-x+1/2, y+1/2, -z+1/2'
 '-x, -y, -z'
 'x-1/2, -y-1/2, z-1/2'

_cell_length_a                     4.0481(5)
_cell_length_b                     5.7898(7)
_cell_length_c                     14.3914(17)
_cell_angle_alpha                  90
_cell_angle_beta                   97.240(4)
_cell_angle_gamma                  90
_cell_volume                       334.61(7)
_cell_formula_units_Z              2
_cell_measurement_reflns_used      5204
_cell_measurement_temperature      200
_cell_measurement_theta_max        28.8
_cell_measurement_theta_min        2.85
_shelx_estimated_absorpt_T_max     0.198
_shelx_estimated_absorpt_T_min     0.123
_exptl_absorpt_coefficient_mu      11.997
_exptl_absorpt_correction_T_max    0.7457
_exptl_absorpt_correction_T_min    0.2462
_exptl_absorpt_correction_type     multi-scan
_exptl_absorpt_process_details     SADABS
_exptl_absorpt_special_details     ?
_exptl_crystal_colour              colourless
_exptl_crystal_colour_primary      colourless
_exptl_crystal_density_diffrn      2.341
_exptl_crystal_density_meas        ?
_exptl_crystal_density_method      ?
_exptl_crystal_description         block
_exptl_crystal_F_000               220
_exptl_crystal_size_max            0.3
_exptl_crystal_size_mid            0.25
_exptl_crystal_size_min            0.2
_exptl_transmission_factor_max     ?
_exptl_transmission_factor_min     ?
_diffrn_reflns_av_R_equivalents    0.0592
_diffrn_reflns_av_unetI/netI       0.0334
_diffrn_reflns_Laue_measured_fraction_full  0.992
_diffrn_reflns_Laue_measured_fraction_max  0.991
_diffrn_reflns_limit_h_max         4
_diffrn_reflns_limit_h_min         -4
_diffrn_reflns_limit_k_max         7
_diffrn_reflns_limit_k_min         -7
_diffrn_reflns_limit_l_max         17
_diffrn_reflns_limit_l_min         -17
_diffrn_reflns_number              5580
_diffrn_reflns_point_group_measured_fraction_full  0.992
_diffrn_reflns_point_group_measured_fraction_max  0.991
_diffrn_reflns_theta_full          25.242
_diffrn_reflns_theta_max           25.961
_diffrn_reflns_theta_min           2.854
_diffrn_ambient_temperature        200
_diffrn_detector_area_resol_mean   ?
_diffrn_measured_fraction_theta_full  0.992
_diffrn_measured_fraction_theta_max  0.991
_diffrn_measurement_device_type    'Bruker APEX-II CCD'
_diffrn_measurement_method         '\f and \w scans'
_diffrn_radiation_type             MoK\a
_diffrn_radiation_wavelength       0.71073
_diffrn_source                     ?
_diffrn_standards_number           0
_reflns_Friedel_coverage           0.000
_reflns_Friedel_fraction_full      .
_reflns_Friedel_fraction_max       .
_reflns_number_gt                  600
_reflns_number_total               643
_reflns_special_details
;
 Reflections were merged by SHELXL according to the crystal
 class for the calculation of statistics and refinement.
 
 _reflns_Friedel_fraction is defined as the number of unique
 Friedel pairs measured divided by the number that would be
 possible theoretically, ignoring centric projections and
 systematic absences.
;
_reflns_threshold_expression       'I > 2\s(I)'
_computing_cell_refinement         'SAINT V8.40A (?, 2016)'
_computing_data_collection         ?
_computing_data_reduction          'SAINT V8.40A (?, 2016)'
_computing_molecular_graphics      'Olex2 (Dolomanov et al., 2009)'
_computing_publication_material    'Olex2 (Dolomanov et al., 2009)'
_computing_structure_refinement    'XL (Sheldrick, 2008)'
_computing_structure_solution      'XS (Sheldrick, 2008)'
_refine_diff_density_max           0.984
_refine_diff_density_min           -1.791
_refine_diff_density_rms           0.350
_refine_ls_extinction_coef         .
_refine_ls_extinction_method       none
_refine_ls_goodness_of_fit_ref     1.186
_refine_ls_hydrogen_treatment      constr
_refine_ls_matrix_type             full
_refine_ls_number_parameters       37
_refine_ls_number_reflns           643
_refine_ls_number_restraints       0
_refine_ls_R_factor_all            0.0509
_refine_ls_R_factor_gt             0.0486
_refine_ls_restrained_S_all        1.186
_refine_ls_shift/su_max            0.001
_refine_ls_shift/su_mean           0.000
_refine_ls_structure_factor_coef   Fsqd
_refine_ls_weighting_details      
 'w=1/[\s^2^(Fo^2^)+(0.0663P)^2^+1.8922P] where P=(Fo^2^+2Fc^2^)/3'
_refine_ls_weighting_scheme        calc
_refine_ls_wR_factor_gt            0.1211
_refine_ls_wR_factor_ref           0.1226
_refine_special_details            ?
_olex2_refinement_description
;
1. Fixed Uiso
 At 1.2 times of:
  All C(H) groups
2.a Aromatic/amide H refined with riding coordinates:
 C3(H3), C2(H2)
;
_atom_sites_solution_hydrogens     geom
_atom_sites_solution_primary       direct
_atom_sites_solution_secondary     ?
loop_
  _atom_site_label
  _atom_site_type_symbol
  _atom_site_fract_x
  _atom_site_fract_y
  _atom_site_fract_z
  _atom_site_U_iso_or_equiv
  _atom_site_adp_type
  _atom_site_occupancy
  _atom_site_site_symmetry_order
  _atom_site_calc_flag
  _atom_site_refinement_flags_posn
  _atom_site_refinement_flags_adp
  _atom_site_refinement_flags_occupancy
  _atom_site_disorder_assembly
  _atom_site_disorder_group
 Br1 Br 0.18998(15) 0.16787(11) 0.83104(4) 0.0259(3) Uani 1 1 d . . . . .
 C1 C 0.0808(15) 0.3622(10) 0.9290(4) 0.0171(12) Uani 1 1 d . . . . .
 C3 C -0.1707(16) 0.7072(11) 0.9787(4) 0.0207(13) Uani 1 1 d . . . . .
 H3 H -0.286863 0.848087 0.964845 0.025 Uiso 1 1 calc R . . . .
 C2 C -0.0862(16) 0.5652(10) 0.9072(4) 0.0209(13) Uani 1 1 d . . . . .
 H2 H -0.143930 0.608699 0.843585 0.025 Uiso 1 1 calc R . . . .

loop_
  _atom_site_aniso_label
  _atom_site_aniso_U_11
  _atom_site_aniso_U_22
  _atom_site_aniso_U_33
  _atom_site_aniso_U_23
  _atom_site_aniso_U_13
  _atom_site_aniso_U_12
 Br1 0.0312(5) 0.0296(5) 0.0177(4) -0.0065(2) 0.0065(3) -0.0011(2)
 C1 0.018(3) 0.021(3) 0.012(3) -0.002(2) 0.001(2) -0.004(2)
 C3 0.020(3) 0.020(3) 0.020(3) 0.004(2) -0.003(2) 0.003(2)
 C2 0.029(3) 0.019(3) 0.014(3) 0.005(2) -0.001(2) 0.000(2)

_geom_special_details
;
 All esds (except the esd in the dihedral angle between two l.s. planes)
 are estimated using the full covariance matrix.  The cell esds are taken
 into account individually in the estimation of esds in distances, angles
 and torsion angles; correlations between esds in cell parameters are only
 used when they are defined by crystal symmetry.  An approximate (isotropic)
 treatment of cell esds is used for estimating esds involving l.s. planes.
;
loop_
  _geom_bond_atom_site_label_1
  _geom_bond_atom_site_label_2
  _geom_bond_distance
  _geom_bond_site_symmetry_2
  _geom_bond_publ_flag
 Br1 C1 1.899(6) . ?
 C1 C3 1.391(9) 3_567 ?
 C1 C2 1.372(8) . ?
 C3 C2 1.394(9) . ?

loop_
  _geom_angle_atom_site_label_1
  _geom_angle_atom_site_label_2
  _geom_angle_atom_site_label_3
  _geom_angle
  _geom_angle_site_symmetry_1
  _geom_angle_site_symmetry_3
  _geom_angle_publ_flag
 C3 C1 Br1 118.7(5) 3_567 . ?
 C2 C1 Br1 119.4(5) . . ?
 C2 C1 C3 121.9(6) . 3_567 ?
 C1 C3 C2 118.4(6) 3_567 . ?
 C1 C2 C3 119.7(6) . . ?

loop_
  _geom_torsion_atom_site_label_1
  _geom_torsion_atom_site_label_2
  _geom_torsion_atom_site_label_3
  _geom_torsion_atom_site_label_4
  _geom_torsion
  _geom_torsion_site_symmetry_1
  _geom_torsion_site_symmetry_2
  _geom_torsion_site_symmetry_3
  _geom_torsion_site_symmetry_4
  _geom_torsion_publ_flag
 Br1 C1 C2 C3 179.2(5) . . . . ?
 C1 C3 C2 C1 0.2(10) 3_567 . . . ?
 C3 C1 C2 C3 -0.2(10) 3_567 . . . ?

_shelx_res_file
;
TITL mo_DBBnew_0m in P21/n #14
    mo_dbbnew_0m.res
    created by SHELXL-2018/3 at 16:06:54 on 16-Apr-2020
REM reset to P21/n #14
CELL 0.71073 4.0481 5.7898 14.3914 90 97.2402 90
ZERR 2 0.0005 0.0007 0.0017 0 0.0044 0
LATT 1
SYMM 0.5-X,0.5+Y,0.5-Z
SFAC C H Br
UNIT 12 8 4

L.S. 14
PLAN  5
SIZE 0.3 0.25 0.2
TEMP -73.15
BOND
CONF
HTAB
fmap 2 53
ACTA
OMIT 0 52
REM <olex2.extras>
REM <HklSrc "%.\\mo_DBBnew_0m.hkl">
REM </olex2.extras>

WGHT    0.066300    1.892200
FVAR       1.22110
BR1   3    0.189981    0.167865    0.831040    11.00000    0.03122    0.02964 =
         0.01771   -0.00645    0.00646   -0.00110
C1    1    0.080780    0.362154    0.929015    11.00000    0.01800    0.02103 =
         0.01225   -0.00225    0.00134   -0.00430
C3    1   -0.170671    0.707246    0.978749    11.00000    0.02029    0.02029 =
         0.02015    0.00367   -0.00302    0.00292
AFIX  43
H3    2   -0.286863    0.848087    0.964845    11.00000   -1.20000
AFIX   0
C2    1   -0.086175    0.565172    0.907205    11.00000    0.02889    0.01889 =
         0.01387    0.00502   -0.00129    0.00028
AFIX  43
H2    2   -0.143930    0.608699    0.843585    11.00000   -1.20000
AFIX   0
HKLF 4




REM  mo_DBBnew_0m in P21/n #14
REM wR2 = 0.122623, GooF = S = 1.18568, Restrained GooF = 1.18568 for all data
REM R1 = 0.048638 for 600 Fo > 4sig(Fo) and 0.050898 for all 643 data
REM 37 parameters refined using 0 restraints

END

WGHT      0.0662      1.3621

REM No hydrogen bonds found for HTAB generation

REM Highest difference peak  0.984,  deepest hole -1.791,  1-sigma level  0.350
Q1    1   0.0469  0.3999  0.7756  11.00000  0.05    0.98
Q2    1   0.3100  0.3730  0.8870  11.00000  0.05    0.92
Q3    1   0.2940 -0.0223  0.7535  11.00000  0.05    0.83
Q4    1   0.1471  0.4958  0.9214  11.00000  0.05    0.79
Q5    1   0.0755  0.3739  0.8564  11.00000  0.05    0.77
;
_shelx_res_checksum                29990
_shelx_hkl_file
;
  -1   0   0   30.00    5.00
  -1   0   0   24.80    5.70
  -1   0   0   18.70    3.80
  -1   0   0   21.10    2.20
   1   0   0   15.70    3.70
   1   0   0   27.80    5.10
   1   0   0   23.40    5.00
   1   0   0   17.80    3.80
   2   0   0 5052.39  342.87
   3   0   0   22.50   23.20
  -3   0   0   19.70   11.10
   4   0   0   24.90   29.10
   4   0   0   12.50   14.60
   5   0   0   43.80   38.30
   5   0   0  -40.20   28.30
   5   0   0   10.30   18.40
   0  -1   0   24.30    3.50
   0  -1   0   20.80    4.20
   0  -1   0   22.40    4.50
   0  -1   0   28.80    4.10
   0   1   0   20.10    4.40
   0   1   0   26.10    5.80
  -1  -1   0   96.49    9.40
  -1  -1   0   94.49   11.20
   1  -1   0   80.79   10.60
  -1  -1   0   96.99    7.50
   1   1   0   92.19    7.60
  -1   1   0   93.19    7.60
   1   1   0   94.99   10.90
   1   1   0   87.49   10.10
  -1   1   0  100.39   10.60
   1   1   0   77.69    8.40
   1   1   0   72.99    9.80
   1   1   0   98.09    8.20
  -1   1   0  109.09    7.80
   2  -1   0 5205.08  424.16
   2  -1   0 6455.75  424.46
   2  -1   0 6672.33  421.96
   2   1   0 6748.02  421.96
  -3  -1   0 1008.00   74.89
   3  -1   0  981.10   68.19
   3  -1   0  935.61   73.39
   3  -1   0  926.61   71.49
  -3  -1   0  943.71   68.79
  -3  -1   0  993.00   73.19
   3   1   0 1011.70   69.99
  -3   1   0  998.90   70.79
   3   1   0  931.21   68.39
  -3   1   0  938.51   66.09
   3   1   0 1024.10   68.99
  -4  -1   0 1654.03  118.59
   4  -1   0 1353.66  122.09
   4  -1   0 1671.63  111.89
   4  -1   0 1593.74  118.79
   4   1   0 1692.93  120.59
  -4   1   0 1640.74  115.49
   4   1   0 1663.83  113.79
   4   1   0 1567.84  112.99
   5  -1   0  363.26   62.49
   5  -1   0  254.77   54.89
   5  -1   0  289.57   33.30
   5   1   0  303.97   60.19
   5   1   0  346.07   40.60
   0  -2   0 3767.92  254.37
  -1  -2   0 4331.57  337.57
  -1  -2   0 5063.59  334.57
  -1  -2   0 5232.48  334.87
   1   2   0 5245.08  336.67
   2  -2   0 1556.94  120.69
  -2  -2   0 1530.35  125.49
  -2  -2   0 1957.90  123.69
   2  -2   0 1587.34  123.09
  -2  -2   0 1937.61  120.69
   2  -2   0 1881.21  123.29
  -2   2   0 1969.00  122.99
   2   2   0 1487.95  124.49
  -2   2   0 1770.22  120.39
   2   2   0 1867.61  120.49
   2   2   0 1990.10  120.89
   2   2   0 2030.70  122.69
   2   2   0 1532.05  120.99
   3  -2   0 1401.96  101.69
  -3  -2   0 1510.35  109.19
   3  -2   0 1481.75  106.69
  -3  -2   0 1496.65  100.89
  -3  -2   0 1518.35  107.09
   3   2   0 1532.05  102.99
   3   2   0 1584.94  104.79
  -3   2   0 1486.35  101.39
  -3   2   0 1495.95  105.69
   3   2   0 1361.96  101.99
  -3   2   0 1464.15  101.49
   4  -2   0   -2.50   31.50
  -4  -2   0   57.09   26.40
   4  -2   0   -4.70   10.50
  -4  -2   0   12.80   26.10
   4   2   0   10.60   15.10
   4   2   0   17.90   18.20
  -4   2   0   38.20   19.70
   5  -2   0   60.09   32.90
   5  -2   0   49.70   41.70
  -5  -2   0   74.79   34.20
   5   2   0   72.39   25.20
   5   2   0   18.60   36.10
  -5   2   0   98.19   29.70
   5   2   0   54.49   21.20
   0  -3   0   18.50   10.20
   0  -3   0  -15.70   11.90
   0  -3   0   -0.50   11.40
   0  -3   0    4.10    4.90
   0   3   0   17.60    9.40
   0   3   0   -2.10    8.70
   0   3   0   -9.20    9.50
   0   3   0    3.60    5.70
   0   3   0   15.50    7.00
   1  -3   0  650.53   51.29
   1  -3   0  642.64   48.00
  -1  -3   0  626.24   58.09
   1  -3   0  732.83   49.50
  -1  -3   0  726.63   48.90
   1  -3   0  689.33   50.29
  -1  -3   0  704.43   51.09
  -1   3   0  762.52   50.79
   1   3   0  699.83   47.80
   1   3   0  707.53   50.69
  -1   3   0  742.13   49.30
  -1   3   0  676.13   52.59
   1   3   0  642.14   52.09
  -1   3   0  655.93   51.19
   2  -3   0   19.50    7.80
   2  -3   0   39.10   14.90
  -2  -3   0   25.10    6.90
  -2  -3   0   32.60   15.30
   2  -3   0   19.80    5.90
   2   3   0   13.10    5.50
  -2   3   0   46.60   14.70
  -2   3   0   13.30    7.00
   2   3   0   28.30   13.20
   2   3   0   32.00    9.10
   3  -3   0 2286.37  157.08
   3  -3   0 2117.59  152.98
  -3  -3   0 2265.77  157.58
  -3  -3   0 2086.99  161.98
   3  -3   0 2227.68  156.78
  -3  -3   0 2253.27  152.18
   3  -3   0 2069.69  151.38
   3   3   0 2166.78  152.48
   3   3   0 2227.88  151.48
   3   3   0 2374.86  155.58
  -3   3   0 2449.25  152.38
  -3   3   0 2313.97  156.48
  -3   3   0 2221.18  152.88
  -4  -3   0  114.59   34.10
  -4  -3   0  118.89   32.40
   4  -3   0  112.39   32.80
   4  -3   0   75.69   14.20
   4  -3   0  161.48   41.20
  -4   3   0  101.99   25.70
   0  -4   0 2480.65  157.78
   0  -4   0 2056.59  153.38
   0   4   0 2014.40  153.08
   0   4   0 2268.77  152.28
   0   4   0 2336.67  152.88
   1  -4   0 3746.03  257.07
  -1  -4   0 3394.66  254.87
  -1  -4   0 4225.28  263.57
   1  -4   0 3662.83  254.97
   1  -4   0 3238.08  253.47
  -1  -4   0 3878.41  256.27
   1  -4   0 3769.22  255.37
   1   4   0 3751.62  253.47
   1   4   0 3936.51  255.07
  -1   4   0 3689.03  256.47
   1   4   0 3726.23  255.37
  -1   4   0 3920.41  257.17
  -1   4   0 3877.11  256.47
   2  -4   0  368.26   30.90
   2  -4   0  309.57   26.70
   2  -4   0  374.26   38.40
  -2  -4   0  324.77   29.10
   2  -4   0  399.66   35.40
  -2  -4   0  328.47   39.10
  -2   4   0  355.76   31.20
   2   4   0  362.46   29.90
  -2   4   0  365.16   37.10
   2   4   0  364.16   26.10
  -2   4   0  326.07   30.20
   2   4   0  411.26   37.00
  -3  -4   0  194.18   44.80
  -3  -4   0  220.68   21.80
   3  -4   0  193.18   17.00
  -3  -4   0  163.88   39.60
  -3   4   0  307.47   52.59
   3   4   0  188.98   22.00
   3   4   0  272.67   40.20
   4  -4   0   46.40   30.50
  -4  -4   0    4.30   33.10
  -4  -4   0   21.00    9.90
   4  -4   0   48.70   33.60
  -4  -4   0  -22.20   37.00
   4   4   0   10.30   11.20
  -4   4   0   29.40   28.50
   4   4   0   55.59   25.20
   0  -5   0   14.20   16.60
   0  -5   0  -12.00   24.70
   0  -5   0   -4.30   11.60
   0   5   0    4.30   12.10
   0   5   0  -23.70   16.10
   0   5   0  -14.90   12.20
  -1  -5   0  189.48   23.70
  -1  -5   0  221.08   52.29
   1  -5   0  186.68   39.30
  -1  -5   0  253.97   27.10
  -1  -5   0  218.68   33.10
   1  -5   0  209.38   25.10
  -1   5   0  192.58   27.60
  -1   5   0  171.38   24.90
  -1   5   0  199.78   29.10
   1   5   0  228.68   31.40
   1   5   0  193.38   21.60
   1   5   0  181.18   24.50
   2  -5   0  864.51   67.19
   2  -5   0  788.02   57.69
   2  -5   0  859.81   60.69
   2  -5   0  663.33   52.99
  -2  -5   0  741.63   56.29
  -2  -5   0  823.02   64.89
  -2  -5   0  630.84   51.59
  -2   5   0  738.43   61.89
  -2   5   0  686.63   56.79
   2   5   0  755.32   56.59
   2   5   0  782.32   53.89
   2   5   0  870.31   62.99
  -2   5   0  627.94   59.49
  -3  -5   0  214.98   24.10
  -3  -5   0  171.88   35.40
   3   5   0  122.29   23.60
  -3   5   0  170.08   37.90
   3   5   0  260.57   41.10
  -4  -5   0  278.87   65.19
  -4  -5   0  230.28   56.49
   4   5   0  384.16   61.49
  -4   5   0  318.57   56.49
   0  -6   0 2020.30  143.19
   0  -6   0 1840.22  141.09
   0   6   0 1913.11  140.09
   0   6   0 1996.60  141.79
   0   6   0 2337.37  145.09
   1  -6   0   30.40   20.10
  -1  -6   0   19.30   24.60
  -1  -6   0    2.50   36.50
  -1  -6   0   20.00    4.40
   1  -6   0  -17.50   31.00
   1  -6   0   15.30   28.40
  -1   6   0  -27.20   24.70
   1   6   0  -12.30   15.40
  -1   6   0   -8.30   15.90
   1   6   0   -3.10   11.20
  -1   6   0    6.10   18.10
   1   6   0   16.60   22.30
  -2  -6   0  787.22   67.49
   2  -6   0  839.22   72.89
  -2  -6   0  726.23   57.69
  -2   6   0  689.53   63.99
   2   6   0  654.43   57.09
  -2   6   0  583.74   63.69
   2   6   0  858.21   65.89
  -3  -6   0   -3.60   32.90
   3  -6   0   83.09   37.70
   3   6   0   56.69   29.70
   0  -7   0   22.90   26.20
   0  -7   0   57.89   43.70
   0  -7   0   26.70   17.80
   0   7   0   -7.70   17.40
   0   7   0   36.20   44.60
   1  -7   0   56.19   36.20
  -1  -7   0   44.50   28.30
   1  -7   0   62.59   25.20
  -1  -7   0  143.99   53.59
  -1   7   0   17.50   22.10
   1   7   0   64.89   25.70
  -1   7   0  103.89   32.50
   2  -7   0  393.26   48.20
  -2  -7   0  304.07   69.39
   2   7   0  376.46   53.29
   5   0  -1  286.07   59.29
   5   0  -1  169.58   46.70
   5   0  -1  221.18   30.70
   5   0  -1  272.47   35.30
   4   0  -1   -9.90   15.20
   4   0  -1    1.90   28.40
   4   0  -1   -2.60   15.70
  -3   0   1  223.68   23.90
  -3   0   1  256.97   29.20
   3   0  -1  230.58   32.90
   3   0  -1  167.28   23.60
  -2   0   1    8.60    6.80
   2   0  -1    0.60    6.50
  -2   0   1   12.40    6.10
   2   0  -1    3.30    8.10
   2   0  -1   33.40   11.70
  -2   0   1   25.60    9.10
   2   0  -1    7.30    6.70
  -2   0   1   15.60   10.20
  -1   0   1 1825.92  122.39
  -1   0   1 1806.12  122.39
   1   0  -1 1786.02  122.19
   1   0  -1 1806.92  122.69
  -2   0  -1   13.00    4.00
   2   0   1   21.60    6.80
   2   0   1   26.30   11.80
   2   0   1    5.30    9.80
   2   0   1   35.20   12.90
  -2   0  -1   18.50    3.20
  -2   0  -1   25.90   10.80
   2   0   1    6.30    6.30
   2   0   1    5.80    6.30
  -3   0  -1 4758.42  325.97
  -3   0  -1 4631.04  323.07
   3   0   1 4906.41  322.47
   3   0   1 4993.30  326.37
   3   0   1 4575.94  322.77
   4   0   1   27.00   29.20
   4   0   1   14.30   13.40
  -4   0  -1   35.50   16.50
   5   0   1   30.40   38.00
  -5   0  -1   74.89   29.40
   5   0   1   17.30   17.50
   5  -1  -1  218.78   49.20
   5  -1  -1  321.37   58.19
   5  -1  -1  223.68   31.10
   5   1  -1  170.48   36.40
   5   1  -1  201.28   37.00
   5   1  -1  245.68   57.59
   5   1  -1  236.38   38.90
  -4  -1   1  778.32   64.69
   4  -1  -1  638.34   62.09
   4  -1  -1  681.53   65.69
  -4  -1   1  776.32   62.19
   4   1  -1  696.23   56.19
   4   1  -1  692.33   57.79
   4   1  -1  708.33   66.29
  -4   1   1  785.42   59.69
   3  -1  -1 2685.33  204.28
   3  -1  -1 3167.28  208.38
   3  -1  -1 2643.74  209.78
  -3  -1   1 3208.28  208.78
   3  -1  -1 2967.00  206.28
  -3  -1   1 3149.49  208.58
  -3   1   1 3101.19  207.08
   3   1  -1 3040.40  211.78
   3   1  -1 3243.88  206.28
   3   1  -1 2969.10  207.58
  -3   1   1 3020.10  205.48
  -3   1   1 3159.68  203.98
  -2  -1   1 3951.30  246.18
   2  -1  -1 3680.23  247.78
   2  -1  -1 3979.00  246.58
   2  -1  -1 3171.28  247.18
  -2  -1   1 3782.52  249.08
  -2  -1   1 3755.22  248.48
   2  -1  -1 3077.09  247.68
   2  -1  -1 3470.85  248.88
   2   1  -1 3635.34  247.18
   2   1  -1 3871.61  246.28
   2   1  -1 3335.47  254.77
  -2   1   1 3881.01  246.48
   2   1  -1 4006.00  248.18
  -2   1   1 3523.65  246.98
   2   1  -1 3769.72  248.08
   0  -1   1   20.70    4.00
   0  -1   1   29.20    3.90
   0  -1  -1   19.40    3.90
   0  -1  -1   32.20    3.90
   0  -1   1   28.70    4.70
   0  -1   1   21.70    5.20
   0  -1  -1   20.20    5.50
   0   1  -1   23.30    4.80
   0   1   1   32.00    4.70
   0   1  -1   23.10    4.00
   0   1   1   35.30    4.00
   0   1   1   25.10    3.70
   0   1  -1   31.50    4.10
   0   1  -1   30.60    4.70
   1  -1   1 2135.69  145.39
   1  -1   1 2103.39  145.79
  -1   1  -1 2203.08  145.09
  -2  -1  -1  100.09   17.90
  -2  -1  -1  120.69   21.70
  -2  -1  -1   93.49    8.20
   2  -1   1  122.09   24.30
  -2  -1  -1   91.29   10.90
   2  -1   1  102.09   10.70
   2  -1   1   89.79   10.10
   2  -1   1   59.29   16.40
   2  -1   1   81.69   13.40
   2  -1   1   75.49    9.20
   2  -1   1   81.89   17.20
  -2   1  -1   80.99    9.00
   2   1   1   96.49   18.30
   2   1   1   97.59   14.50
   2   1   1   84.79   11.90
   2   1   1  121.59   21.00
   2   1   1   88.19   10.60
   3  -1   1 1881.61  131.89
  -3  -1  -1 1843.72  131.79
  -3  -1  -1 1961.50  137.09
   3  -1   1 1691.33  137.59
  -3  -1  -1 1932.41  135.39
   3  -1   1 1965.60  131.19
  -3  -1  -1 2007.20  130.19
   3  -1   1 1943.21  136.59
  -3  -1  -1 1773.12  129.89
  -3   1  -1 1918.41  133.59
   3   1   1 1859.21  131.49
   3   1   1 2013.40  132.79
   3   1   1 2112.19  136.69
  -3   1  -1 2046.90  130.29
   4  -1   1  188.68   40.40
   4  -1   1  238.48   25.50
  -4  -1  -1  300.57   30.00
  -4  -1  -1  327.17   41.80
   4   1   1  271.67   31.90
   4   1   1  253.57   45.60
  -4   1  -1  326.77   35.50
   4   1   1  200.18   30.10
   5  -1   1  586.04   71.19
   5  -1   1  419.26   64.99
  -5  -1  -1  583.94   65.89
   5  -1   1  476.75   43.60
  -5   1  -1  619.84   56.09
   5   1   1  492.95   68.09
   5   1   1  543.05   52.19
   5  -2  -1  148.89   35.00
  -5  -2   1  147.49   34.60
   5  -2  -1  127.19   28.70
   5  -2  -1  152.58   41.40
   5   2  -1   65.49   40.10
   5   2  -1  162.68   35.50
   5   2  -1  125.59   27.30
   4  -2  -1  410.56   36.80
   4  -2  -1  420.96   54.59
   4  -2  -1  453.85   49.60
  -4  -2   1  506.35   48.90
  -4  -2   1  490.25   52.19
   4   2  -1  456.35   55.89
  -4   2   1  382.86   31.50
  -4   2   1  483.75   47.20
   4   2  -1  444.96   44.60
  -3  -2   1  135.19   12.40
   3  -2  -1  130.09   14.30
   3  -2  -1  137.99   31.30
   3  -2  -1  134.69   23.20
   3  -2  -1  185.58   27.40
  -3  -2   1  210.18   40.30
   3   2  -1  182.98   25.50
  -3   2   1  137.49   14.10
   3   2  -1  136.29   13.30
   3   2  -1  153.88   21.50
  -2  -2   1 2307.67  147.99
   2  -2  -1 2024.60  146.89
  -2  -2   1 1955.50  149.09
   2  -2  -1 2151.38  147.29
  -2  -2   1 2335.47  145.29
  -2   2   1 2275.67  147.19
   2   2  -1 1772.72  148.19
   2   2  -1 2109.69  145.29
   2   2  -1 2427.86  147.19
  -2   2   1 2132.29  145.49
  -2   2   1 1796.52  147.19
  -2   2   1 2434.76  147.29
   1  -2  -1 1777.72  119.29
  -1  -2   1 1777.62  120.59
   1  -2  -1 1745.23  119.59
  -1  -2   1 1555.44  122.29
   1  -2  -1 1567.54  120.19
  -1  -2   1 1878.81  119.39
   1   2  -1 1893.21  119.99
  -1   2   1 1865.71  119.99
  -1   2   1 1887.91  119.49
   1   2  -1 1797.22  120.79
   1   2  -1 1588.54  119.09
   0  -2   1 4490.15  302.77
  -1  -2  -1 3971.00  246.28
  -1   2  -1 3668.33  246.38
  -1   2  -1 3177.08  245.98
   1   2   1 3948.10  248.58
  -1   2  -1 3475.65  249.58
  -2  -2  -1 3564.24  233.78
   2  -2   1 3285.87  230.78
  -2  -2  -1 3414.26  232.08
   2  -2   1 3777.52  234.08
   2  -2   1 3338.97  233.58
  -2   2  -1 3166.08  230.58
  -2   2  -1 3546.25  233.18
   2   2   1 3068.09  231.08
   2   2   1 3510.45  232.58
   2   2   1 3458.45  230.78
  -2   2  -1 3372.96  231.88
   2   2   1 3631.14  231.68
   3  -2   1  864.81   63.89
  -3  -2  -1  892.51   74.79
   3  -2   1  882.01   64.69
  -3  -2  -1  984.90   71.09
   3  -2   1  968.90   71.79
  -3  -2  -1  906.61   62.79
   3   2   1  938.51   64.79
   3   2   1  954.80   67.59
   3   2   1  897.61   63.59
  -3   2  -1  974.30   69.19
  -3   2  -1  922.71   63.49
   3   2   1  781.42   63.69
   4  -2   1  498.35   66.49
  -4  -2  -1  620.94   69.69
   4  -2   1  551.24   42.60
  -4  -2  -1  630.24   62.79
   4  -2   1  599.64   59.19
   4   2   1  616.74   51.99
   4   2   1  585.04   68.99
  -4   2  -1  601.34   55.89
   4   2   1  590.04   47.90
   5  -2   1   17.20   36.10
   5  -2   1   44.40   43.50
  -5  -2  -1   54.49   36.80
   5   2   1   63.09   25.10
   5   2   1   36.40   25.90
  -5   2  -1   86.99   30.10
  -4  -3   1 1634.24  124.29
   4  -3  -1 1567.04  112.49
   4  -3  -1 1696.33  131.69
  -4  -3   1 1665.03  123.99
   4  -3  -1 1599.74  121.69
   4   3  -1 1670.63  118.69
  -4   3   1 1624.14  120.49
  -3  -3   1   83.09   13.10
  -3  -3   1  123.89   24.50
   3  -3  -1   91.19   14.70
   3   3  -1   57.49   13.20
  -3   3   1   95.09   13.40
   3   3  -1   76.69   13.30
   3   3  -1  144.79   28.00
   2  -3  -1 4824.92  335.47
  -2  -3   1 5265.47  333.77
   2  -3  -1 4775.62  333.17
  -2  -3   1 5216.08  336.37
   2  -3  -1 5342.77  334.37
  -2  -3   1 4493.25  332.87
   2  -3  -1 5044.20  334.57
  -2   3   1 4652.33  334.07
   2   3  -1 4403.96  332.97
  -2   3   1 5179.08  333.97
   2   3  -1 5629.44  335.27
   2   3  -1 4496.65  332.97
  -1  -3   1   13.00   11.50
  -1  -3   1   -8.70    8.80
  -1  -3   1   10.80    6.10
   1  -3  -1   11.00    6.30
   1  -3  -1    6.60    7.10
   1  -3  -1   22.30   12.50
   1  -3  -1    9.00    7.80
  -1   3   1    9.20    6.10
   1   3  -1   17.30   10.30
  -1   3   1   24.00    9.80
  -1   3   1    8.60   11.60
   1   3  -1   17.30   11.70
   1   3  -1   17.00    7.00
   0  -3  -1 1453.25   99.69
   0  -3   1 1334.47   98.89
   0  -3   1 1351.56   96.19
   0  -3  -1 1304.97   96.09
   0  -3   1 1414.96   95.79
   0  -3  -1 1418.36   96.29
   0  -3   1 1435.66   97.39
   0  -3  -1 1406.16   96.79
   0   3  -1 1557.64   96.59
   0   3  -1 1331.17   97.19
   0   3  -1 1435.56   96.19
   0   3   1 1511.05   96.39
   0   3   1 1486.75   95.79
   0   3  -1 1380.26   97.39
   0   3   1 1270.57   96.89
   0   3   1 1365.86   97.09
   0   3  -1 1353.26   96.29
   1  -3   1   36.60    7.80
   1  -3   1   39.60    8.90
  -1  -3  -1   30.70    6.30
   1  -3   1   44.70   13.30
  -1  -3  -1   55.49   13.20
   1   3   1   35.70    7.50
  -1   3  -1   15.90   15.20
  -1   3  -1   20.60    6.40
   1   3   1   48.70   12.10
  -1   3  -1   52.09   11.40
   2  -3   1  279.37   25.20
  -2  -3  -1  323.97   23.50
  -2  -3  -1  294.67   32.20
   2  -3   1  284.77   31.60
   2  -3   1  336.77   32.20
   2  -3   1  247.28   21.10
   2   3   1  324.27   28.30
  -2   3  -1  268.17   24.00
  -2   3  -1  294.87   21.50
   2   3   1  291.07   30.00
  -2   3  -1  319.57   31.30
  -3  -3  -1   31.00    8.00
  -3  -3  -1   36.70   20.40
   3  -3   1   59.69   21.80
   3  -3   1   51.49   23.10
  -3  -3  -1   12.30   27.50
  -3   3  -1   18.10    8.60
  -3   3  -1   51.89   20.20
   3   3   1   29.40    8.70
   3   3   1   45.70   17.50
   3   3   1   26.10    6.10
   4  -3   1 1019.20   81.29
  -4  -3  -1  976.30   79.99
  -4  -3  -1  873.01   64.89
   4  -3   1  856.01   99.89
  -4  -3  -1  767.22  108.59
  -4   3  -1  977.70   78.19
   4   3   1  993.50   74.69
  -4  -4   1   55.09   46.40
  -4  -4   1   61.69   34.50
   4  -4  -1   74.29   31.20
  -4  -4   1   82.59   14.90
   4  -4  -1   72.39   28.70
  -4   4   1   62.49   28.90
   4   4  -1   75.89   26.90
   3  -4  -1    9.40    8.00
   3  -4  -1   46.60   19.70
  -3  -4   1  -10.20   25.80
  -3  -4   1  -14.40   29.10
  -3  -4   1    5.60    9.40
   3  -4  -1   31.20   24.70
  -3   4   1   23.30   22.70
   3   4  -1   21.70   22.00
   3   4  -1   13.70    9.30
   2  -4  -1  561.04   41.60
  -2  -4   1  442.36   38.80
  -2  -4   1  508.15   48.60
   2  -4  -1  523.35   47.10
   2  -4  -1  571.04   43.30
  -2  -4   1  519.65   40.10
  -2   4   1  516.25   40.80
  -2   4   1  572.64   46.10
   2   4  -1  581.44   45.80
   2   4  -1  559.74   40.90
   2   4  -1  507.75   38.20
   1  -4  -1  456.95   34.50
  -1  -4   1  401.86   32.00
   1  -4  -1  415.86   32.70
   1  -4  -1  346.97   30.70
   1  -4  -1  372.86   39.90
  -1  -4   1  415.06   37.90
  -1   4   1  411.56   39.00
   1   4  -1  400.16   35.10
  -1   4   1  431.86   34.70
  -1   4   1  324.47   38.70
   1   4  -1  411.36   31.20
   1   4  -1  423.66   32.40
   0  -4  -1 3501.45  250.57
   0  -4   1 3622.94  241.98
   0  -4  -1 3448.35  238.78
   0   4  -1 3447.56  238.48
   0   4   1 3499.95  239.18
   0   4  -1 3497.55  238.18
   0   4  -1 3497.15  238.48
   0   4   1 3483.35  237.58
   0   4   1 3580.64  238.58
   1  -4   1 1852.61  129.29
   1  -4   1 1892.31  126.59
  -1  -4  -1 1921.01  127.99
   1  -4   1 1715.63  124.79
   1  -4   1 1880.11  127.59
  -1  -4  -1 1867.01  135.69
   1   4   1 1985.90  126.49
   1   4   1 1846.62  124.99
  -1   4  -1 1827.72  127.59
  -1   4  -1 1866.31  128.79
   1   4   1 1716.43  127.19
  -1   4  -1 1590.34  129.29
   2  -4   1 2976.40  193.78
  -2  -4  -1 2783.02  195.98
  -2  -4  -1 2743.33  192.78
   2  -4   1 2576.34  190.78
   2  -4   1 2890.01  194.88
   2  -4   1 2761.32  196.08
   2   4   1 3063.99  193.48
  -2   4  -1 2833.12  194.88
   2   4   1 2901.61  194.78
  -2   4  -1 2765.22  193.18
  -3  -4  -1  175.38   48.60
  -3  -4  -1  208.58   20.50
  -3  -4  -1  104.19   42.70
   3   4   1  171.18   21.30
  -4  -4  -1  125.99   34.90
  -4  -4  -1   71.59   45.00
  -4  -4  -1  159.38   19.80
   4  -4   1  202.38   38.90
   4   4   1  156.58   20.00
   4   4   1  220.38   43.00
  -4   4  -1  156.48   33.40
   4  -5  -1  366.26   76.59
   4  -5  -1  281.67   45.10
   4   5  -1  276.17   63.69
  -3  -5   1  938.61   69.09
   3  -5  -1 1007.20   74.09
   3  -5  -1 1020.50   81.29
  -3  -5   1  847.72   79.79
  -3   5   1  881.61   67.79
   3   5  -1 1066.59   76.89
  -3   5   1  952.70   77.59
   3   5  -1  857.71   69.19
   2  -5  -1  539.05   42.40
  -2  -5   1  420.36   37.40
  -2  -5   1  448.36   48.80
   2  -5  -1  453.55   39.00
   2  -5  -1  473.45   49.30
   2   5  -1  407.96   37.30
   2   5  -1  483.95   44.50
  -2   5   1  436.76   44.80
   2   5  -1  450.55   34.30
  -2   5   1  379.26   38.20
   1  -5  -1 1893.61  133.49
  -1  -5   1 2062.69  136.59
   1  -5  -1 1755.92  137.59
  -1  -5   1 1773.52  135.09
   1  -5  -1 1863.91  133.89
  -1  -5   1 1839.92  133.09
   1   5  -1 2054.49  134.79
   1   5  -1 2000.20  131.99
  -1   5   1 1889.01  133.89
   1   5  -1 1988.90  133.69
  -1   5   1 1871.31  133.49
  -1   5   1 2060.19  137.89
   0  -5  -1  198.28   24.50
   0  -5   1  224.78   25.10
   0  -5   1  224.58   32.50
   0  -5  -1  235.08   29.60
   0  -5   1  238.88   43.10
   0   5   1  198.78   24.90
   0   5  -1  186.08   25.20
   0   5   1  175.58   34.20
   0   5   1  215.68   24.20
   0   5  -1  221.38   29.90
   0   5  -1  236.18   28.10
  -1  -5  -1  -14.80   31.10
   1  -5   1   12.30   11.20
  -1  -5  -1   21.70   18.90
   1  -5   1   14.60   23.60
  -1  -5  -1    8.70   11.60
   1   5   1   10.50   17.40
   1   5   1   10.30    8.20
  -1   5  -1   -8.40   11.50
  -1   5  -1   39.50   16.60
   1   5   1   -1.10   11.60
  -2  -5  -1  151.78   27.90
   2  -5   1  211.08   38.70
   2  -5   1  173.28   24.40
  -2  -5  -1  132.69   21.60
   2  -5   1  136.59   15.30
   2   5   1  214.08   35.40
  -2   5  -1  152.18   20.00
  -2   5  -1  146.19   33.40
   2   5   1  105.59   20.80
  -3  -5  -1  268.17   45.30
  -3  -5  -1  302.67   29.00
   3   5   1  253.17   29.20
  -3   5  -1  279.37   44.50
   4  -5   1  244.78   55.69
   4  -5   1  294.57   62.49
   4   5   1  220.48   51.89
   3  -6  -1   74.29   38.00
  -3  -6   1   -4.30   34.00
   3   6  -1   53.49   27.20
   2  -6  -1   54.99   32.40
  -2  -6   1    7.80   27.60
  -2  -6   1   26.70   15.30
  -2   6   1    1.20   21.50
   2   6  -1   29.80   22.30
   1  -6  -1  901.11   70.69
   1  -6  -1  877.11   77.79
  -1  -6   1  924.01   73.39
   1  -6  -1  797.12   78.29
   1   6  -1  994.40   71.79
  -1   6   1  984.50   77.29
   1   6  -1  838.12   67.49
  -1   6   1  814.52   67.79
  -1   6   1  833.02   67.99
   1   6  -1  901.51   64.99
   0  -6   1   61.99   33.20
   0  -6  -1   74.69   32.90
   0  -6  -1   50.19   16.00
   0  -6   1   50.29   15.30
   0  -6  -1   69.89   22.00
   0  -6   1   60.39   23.60
   0   6  -1   55.29   20.80
   0   6   1   31.70   14.80
   0   6   1   17.20   15.30
   0   6   1   44.40   23.70
   0   6  -1   56.49   16.60
   0   6  -1   23.50   17.10
  -1  -6  -1 1975.40  135.69
   1  -6   1 1849.21  144.59
   1  -6   1 1998.60  141.79
   1  -6   1 1817.62  133.59
  -1   6  -1 1791.12  132.69
  -1   6  -1 1861.11  132.39
   1   6   1 2028.60  138.79
   1   6   1 1813.72  132.09
   1   6   1 1768.12  128.39
   2  -6   1   54.69   30.70
  -2  -6  -1    3.70   25.20
  -2  -6  -1   26.60   16.10
  -2   6  -1   59.09   20.40
   2   6   1   38.70   23.80
   3  -6   1  563.24   59.09
  -3  -6  -1  432.16   72.19
   3  -6   1  590.94   75.29
   3   6   1  550.44   68.89
   2  -7  -1  237.18   43.40
   2   7  -1  227.68   48.60
  -1  -7   1  458.35   55.69
   1  -7  -1  572.64   66.29
   1  -7  -1  517.85   51.29
  -1   7   1  380.06   48.30
   1   7  -1  407.56   41.10
   1   7  -1  560.64   54.59
   0  -7   1  106.09   19.90
   0  -7  -1  124.29   27.50
   0  -7  -1  163.88   29.60
   0  -7   1  139.49   29.20
   0   7   1   71.29   23.00
   0   7  -1   91.19   20.50
   0   7  -1   57.89   22.40
   0   7   1   87.79   19.70
  -1  -7  -1   15.40   25.70
   1  -7   1   47.30   36.30
  -1  -7  -1   89.69   48.40
   1  -7   1   73.89   29.00
  -1   7  -1  125.69   32.60
   1   7   1   66.99   27.70
  -2  -7  -1   25.20   62.69
   2   7   1   94.09   44.20
   5   0  -2   -0.10   20.60
   5   0  -2  -21.60   20.90
   5   0  -2  -14.30   25.30
   5   0  -2   47.70   36.60
  -4   0   2 1267.77   88.39
   4   0  -2 1196.68   88.39
   4   0  -2 1168.38   90.89
   4   0  -2 1204.98   87.89
   4   0  -2 1213.78   96.29
   3   0  -2   14.80   17.70
  -3   0   2   24.60   11.40
   3   0  -2   27.60   12.00
  -2   0   2  405.56   28.80
   2   0  -2  364.16   27.70
  -2   0   2  370.66   29.40
   2   0  -2  303.37   27.80
  -2   0   2  364.86   27.20
  -2   0   2  352.96   28.00
   2   0  -2  387.36   30.50
   2   0  -2  338.57   27.60
   2   0  -2  333.67   28.50
  -1   0   2   31.60    5.40
  -1   0   2   38.80    6.20
   1   0  -2   41.30    6.10
   1   0  -2   42.00    6.80
   1   0  -2   35.90    5.50
   1   0  -2   34.90    3.90
  -1   0   2   40.70    5.90
   1   0  -2   28.80    5.30
   1   0  -2   25.70    5.50
   0   0   2  661.03   50.69
   0   0  -2  765.52   50.59
   0   0   2  724.13   50.59
   0   0  -2  811.72   50.89
   0   0   2  815.22   50.89
   0   0   2  688.63   50.89
   0   0  -2  848.62   51.39
   0   0  -2  636.44   51.09
   1   0   2   25.50    5.40
   1   0   2   17.70    7.10
  -1   0  -2   12.90    7.10
   2   0   2 7272.27  505.25
  -2   0  -2 7280.57  501.45
  -2   0  -2 7809.62  501.95
   3   0   2    8.10    9.30
  -3   0  -2    4.80    4.60
  -3   0  -2   47.40   19.30
   3   0   2   35.30   20.60
  -3   0  -2   11.60    4.60
   4   0   2 1911.31  136.89
  -4   0  -2 1872.11  129.89
   4   0   2 1601.24  137.09
   4   0   2 1850.71  127.79
  -4   0  -2 1999.70  136.29
  -5   0  -2   61.89   31.20
   5   0   2   39.90   37.50
   5  -1  -2   -0.80   26.90
   5  -1  -2   38.10   33.70
   5  -1  -2  -15.40   18.60
   5   1  -2   -2.80   20.80
   5   1  -2   20.40   36.60
   5   1  -2    3.20   22.50
   4  -1  -2  577.64   56.19
  -4  -1   2  695.53   55.79
  -4  -1   2  706.73   59.39
   4  -1  -2  562.04   50.09
   4   1  -2  610.24   51.49
   4   1  -2  596.54   61.19
   4   1  -2  582.84   52.79
  -4   1   2  689.53   54.19
   3  -1  -2  897.81   72.29
  -3  -1   2 1059.89   74.29
  -3  -1   2 1060.39   85.09
   3  -1  -2 1010.40   74.49
  -3   1   2 1004.40   71.49
   3   1  -2 1039.00   72.49
   3   1  -2 1035.10   73.89
  -3   1   2 1033.30   73.39
  -2  -1   2 4755.12  323.17
   2  -1  -2 4542.45  322.57
   2  -1  -2 4658.93  323.77
  -2  -1   2 4845.82  321.17
   2  -1  -2 4040.10  322.27
   2  -1  -2 5232.28  321.47
  -2  -1   2 4781.42  323.17
   2   1  -2 4761.72  322.57
  -2   1   2 4906.71  321.37
   2   1  -2 5225.48  321.07
   1   1  -2 4544.35  306.57
  -1  -1  -2 1107.69   73.49
  -1  -1  -2 1129.59   72.19
   1  -1   2 1014.40   73.19
  -1  -1  -2 1071.59   73.69
   1  -1   2 1037.60   73.99
  -1  -1  -2 1161.98   72.89
   1   1   2  931.61   72.09
  -1   1  -2 1137.69   73.79
   1   1   2 1101.29   73.29
  -1   1  -2 1114.69   72.99
   1   1   2  892.01   77.09
   1   1   2 1120.69   72.99
   2  -1   2 1235.28   89.39
   2  -1   2 1298.07   85.49
  -2  -1  -2 1174.88   86.59
   2  -1   2 1151.18   86.49
  -2  -1  -2 1165.88   91.09
  -2  -1  -2 1264.07   87.19
   2  -1   2 1248.48   85.09
  -2  -1  -2 1239.48   88.39
  -2  -1  -2 1329.47   85.49
  -2   1  -2 1274.17   87.49
   2   1   2 1309.57   86.79
  -2   1  -2 1327.17   94.99
  -2   1  -2 1352.06   89.59
  -2   1  -2 1233.68   85.69
   2   1   2 1235.78   85.49
   3  -1   2   65.49   14.70
   3  -1   2   47.50   24.90
  -3  -1  -2   71.69   18.90
  -3  -1  -2   53.89    7.70
   3  -1   2   30.60   21.20
  -3  -1  -2   68.19    8.40
  -3  -1  -2   87.59   15.80
   3  -1   2   58.69   11.80
   3   1   2   55.39    9.80
  -3   1  -2   51.09    9.40
   3   1   2   92.99   21.20
   3   1   2   81.59   18.10
  -4  -1  -2  353.36   32.90
   4  -1   2  215.28   51.19
  -4  -1  -2  360.26   47.70
   4  -1   2  285.67   27.30
   4   1   2  297.97   52.69
   4   1   2  262.27   31.80
  -4   1  -2  360.36   38.10
   4   1   2  331.47   33.70
   5  -1   2   74.79   24.30
  -5  -1  -2  101.99   36.40
   5  -1   2  137.99   41.50
   5   1   2  100.29   40.70
   5   1   2  112.59   28.60
   5  -2  -2  516.55   60.19
   5  -2  -2  485.75   46.00
  -5  -2   2  549.35   60.79
   5  -2  -2  583.34   69.99
   5   2  -2  509.75   52.49
   5   2  -2  483.05   54.79
  -5   2   2  619.54   59.89
  -4  -2   2  289.57   43.60
  -4  -2   2  281.87   38.20
   4  -2  -2  244.08   46.40
   4  -2  -2  242.48   39.30
   4   2  -2  237.68   36.30
   4   2  -2  236.38   33.50
  -4   2   2  293.67   42.90
  -4   2   2  252.17   26.90
  -3  -2   2 1680.53  117.19
  -3  -2   2 1785.22  122.79
   3  -2  -2 1762.42  121.89
  -3  -2   2 1855.21  123.19
   3  -2  -2 1596.44  122.19
   3  -2  -2 1716.33  117.99
  -3   2   2 1670.33  118.69
   3   2  -2 1818.62  121.19
   3   2  -2 1681.83  117.19
  -3   2   2 1759.42  121.59
  -3   2   2 1739.73  117.79
   3   2  -2 1808.02  120.49
   3   2  -2 1622.74  118.79
   2  -2  -2  469.85   38.40
  -2  -2   2  479.15   34.40
  -2  -2   2  527.55   39.80
  -2  -2   2  476.25   39.70
   2  -2  -2  453.75   36.90
  -2   2   2  495.75   37.30
   2   2  -2  492.15   38.20
   2   2  -2  549.95   34.60
   2   2  -2  391.16   35.30
  -2   2   2  515.15   38.20
  -2   2   2  496.75   36.20
   1  -2  -2  831.52   58.59
  -1  -2   2  869.31   60.49
   1  -2  -2  777.62   59.99
   1  -2  -2  879.31   59.19
  -1  -2   2  711.33   61.89
  -1  -2   2  935.01   58.79
   1   2  -2  943.91   58.79
   1   2  -2  752.12   59.49
  -1   2   2  946.11   58.79
   1   2  -2  941.31   59.69
   1   2  -2  718.83   59.09
  -1   2   2  890.11   59.39
   0  -2   2  614.74   45.50
   0  -2  -2  616.14   46.90
   0  -2  -2  540.25   44.30
   0  -2   2  621.04   44.30
   0  -2  -2  663.33   43.70
   0  -2   2  670.73   43.80
   0  -2   2  642.54   45.50
   0  -2  -2  653.83   44.40
   0   2  -2  589.24   44.40
   0   2   2  607.94   45.40
   0   2   2  624.04   44.50
   0   2  -2  648.64   44.60
   0   2  -2  669.43   44.40
   0   2  -2  601.84   44.40
   0   2  -2  669.93   44.00
   0   2   2  673.73   44.30
  -1  -2  -2 6808.82  459.85
   1   2   2 6813.12  462.25
  -1   2  -2 6865.41  461.85
   2  -2   2 2108.69  150.38
  -2  -2  -2 2134.89  150.08
   2  -2   2 2147.99  148.09
  -2  -2  -2 2235.18  147.79
  -2   2  -2 2218.88  148.09
  -2   2  -2 2282.37  150.08
   2   2   2 2023.00  146.89
   2   2   2 2229.38  149.09
   2   2   2 2207.38  147.99
   3  -2   2 2643.24  174.48
   3  -2   2 2266.67  175.28
  -3  -2  -2 2520.75  168.48
   3  -2   2 2367.06  167.58
  -3  -2  -2 2293.67  177.08
  -3  -2  -2 2615.74  173.58
   3  -2   2 2304.27  170.48
  -3   2  -2 2542.45  172.28
  -3   2  -2 2500.65  168.88
   3   2   2 2422.16  168.28
   3   2   2 2683.23  171.08
   3   2   2 2659.83  169.08
   4  -2   2  306.97   55.49
  -4  -2  -2  359.76   70.49
   4  -2   2  272.67   49.90
   4  -2   2  231.38   22.30
  -4  -2  -2  338.37   46.70
   4   2   2  228.18   51.19
   4   2   2  252.97   30.10
   4   2   2  325.67   36.30
  -4   2  -2  307.87   48.50
   5  -2   2  350.26   75.29
  -5  -2  -2  211.28   47.30
   5  -2   2  161.38   74.89
  -5   2  -2  311.47   51.79
   5   2   2  284.67   42.00
   4  -3  -2   67.99   25.90
  -4  -3   2   77.99   25.70
  -4  -3   2   50.69   29.10
   4  -3  -2   81.59   25.80
   4   3  -2   59.69   22.20
   4   3  -2   45.10   17.20
  -4   3   2   84.99   20.60
  -4   3   2   79.19   25.70
   3  -3  -2 3449.55  240.08
   3  -3  -2 3549.34  237.28
  -3  -3   2 3432.76  236.38
   3  -3  -2 3240.38  237.08
  -3  -3   2 3588.64  241.48
  -3  -3   2 3502.75  242.38
   3  -3  -2 3873.41  240.98
  -3   3   2 3438.16  237.38
   3   3  -2 3382.26  236.48
   3   3  -2 3842.42  239.68
  -3   3   2 3300.57  236.88
   3   3  -2 3273.27  236.58
  -3   3   2 3550.64  239.68
  -2  -3   2    2.40    6.60
  -2  -3   2    1.80   16.10
  -2  -3   2    6.80   17.60
   2  -3  -2   30.70   14.80
   2  -3  -2   18.40    9.20
   2  -3  -2    2.70    6.80
   2   3  -2   17.00    8.30
  -2   3   2   15.60   10.90
  -2   3   2   20.50   13.20
  -2   3   2   19.90   12.00
   2   3  -2    5.40   13.20
   2   3  -2    8.50    6.80
  -1  -3   2 8290.47  558.44
   0  -3   2   68.19   10.10
   0  -3  -2   79.79   13.90
   0  -3  -2   50.69    9.30
   0  -3   2   70.09   12.40
   0  -3  -2   49.10   15.60
   0  -3  -2   57.89   11.30
   0  -3   2   43.50   14.40
   0  -3   2   59.89    9.40
   0   3  -2   52.49   12.70
   0   3   2   76.69   13.70
   0   3   2   39.70   11.80
   0   3   2   54.19   11.10
   0   3  -2   85.69   13.30
   0   3   2   63.49   10.70
   0   3   2   47.10   18.20
   0   3  -2   59.99   13.10
   0   3  -2   54.29   14.00
   0   3  -2   66.19    9.60
  -1  -3  -2 2127.09  150.58
   1  -3   2 2043.10  150.68
   1  -3   2 2201.28  150.88
  -1  -3  -2 2200.78  149.39
  -1  -3  -2 2162.88  155.58
   1  -3   2 2145.89  148.09
   1  -3   2 2198.78  149.79
   1   3   2 2310.27  149.69
  -1   3  -2 2098.39  149.39
  -1   3  -2 2222.58  150.68
   1   3   2 2236.38  150.48
   1   3   2 2325.67  147.59
  -1   3  -2 2231.58  149.69
  -2  -3  -2  -28.40   24.60
   2  -3   2   11.20    8.80
   2  -3   2   32.20   17.30
   2  -3   2   19.30   15.30
  -2  -3  -2   12.60    6.70
  -2  -3  -2   12.20   15.20
   2   3   2   10.90   13.10
   2   3   2   11.30    7.10
  -2   3  -2    4.90    6.80
  -2   3  -2   39.70   15.70
  -3  -3  -2   34.60    8.30
   3  -3   2   37.70   21.10
   3  -3   2   18.70    8.90
  -3  -3  -2  -29.90   30.10
   3  -3   2   24.50   26.90
  -3  -3  -2   34.10   20.80
  -3   3  -2   36.30   19.40
   3   3   2   27.50   17.20
   3   3   2   22.80    9.10
  -3   3  -2   16.10    8.60
  -4  -3  -2  -10.90   36.70
   4  -3   2   11.80   35.20
   4  -3   2   51.49   31.70
  -4  -3  -2   14.00    8.40
  -4  -3  -2   44.40   31.00
   4   3   2   48.00   22.40
  -4   3  -2   25.40   26.80
  -4  -4   2  138.49   35.70
   4  -4  -2  198.98   46.70
  -4  -4   2  133.29   17.40
   4  -4  -2  191.28   38.80
  -4  -4   2   84.39   34.40
   4   4  -2  178.28   40.30
  -4   4   2  135.69   30.80
  -4   4   2   88.39   22.20
   4   4  -2  148.19   22.70
   3  -4  -2  540.05   51.89
   3  -4  -2  568.94   45.40
  -3  -4   2  513.85   39.90
  -3  -4   2  534.45   59.39
  -3  -4   2  477.55   53.29
   3  -4  -2  463.15   38.70
  -3   4   2  570.64   52.49
   3   4  -2  475.85   39.50
  -3   4   2  561.04   41.50
   3   4  -2  567.94   52.69
   3   4  -2  479.25   38.80
  -2  -4   2  -14.70   41.80
   2  -4  -2  104.89   25.80
  -2  -4   2   53.79   11.00
   2  -4  -2   68.79   12.50
  -2  -4   2   49.70   21.70
   2  -4  -2   61.09   13.60
   2   4  -2   54.59   11.30
   2   4  -2   61.79   16.50
  -2   4   2   53.89   11.30
  -1  -4   2  745.33   55.59
  -1  -4   2  685.13   50.69
   1  -4  -2  636.94   55.09
  -1  -4   2  638.54   64.79
   1  -4  -2  710.33   50.99
  -1  -4   2  654.33   53.49
   1  -4  -2  710.73   51.59
  -1   4   2  664.53   53.69
  -1   4   2  717.63   51.99
   1   4  -2  711.83   52.69
  -1   4   2  652.13   56.29
   1   4  -2  700.03   50.09
   1   4  -2  748.23   50.99
   0  -4  -2  310.77   37.90
   0  -4  -2  289.27   24.20
   0  -4   2  287.67   25.60
   0  -4  -2  310.67   28.60
   0  -4   2  307.57   31.10
   0   4   2  306.97   26.20
   0   4   2  226.08   32.70
   0   4  -2  277.97   27.50
   0   4  -2  337.67   28.00
   0   4  -2  300.87   26.10
   0   4   2  309.27   25.20
  -1  -4  -2 2768.12  199.58
   1  -4   2 2810.92  191.88
  -1  -4  -2 2795.92  191.78
  -1  -4  -2 2947.80  192.98
   1  -4   2 2823.52  193.88
   1  -4   2 2632.74  189.78
   1  -4   2 2941.91  193.18
   1   4   2 2617.04  192.48
  -1   4  -2 2777.72  192.18
   1   4   2 2991.60  191.88
  -1   4  -2 2774.32  194.58
  -1   4  -2 2809.62  192.48
   2  -4   2 1355.56   91.79
  -2  -4  -2 1166.18   90.69
   2  -4   2 1260.47   88.19
  -2  -4  -2 1219.08   86.99
   2  -4   2 1261.17   92.49
  -2   4  -2 1145.69   84.49
   2   4   2 1312.17   87.89
  -2   4  -2 1247.98   91.59
  -2   4  -2 1236.88   87.59
   2   4   2 1243.18   90.29
   3  -4   2 1814.32  119.09
  -3  -4  -2 1455.75  110.19
  -3  -4  -2 1469.45  119.39
   3  -4   2 1811.32  123.39
   3   4   2 1455.95  110.89
  -3   4  -2 1568.54  119.59
  -4  -4  -2  145.99   21.10
   4  -4   2  232.78   54.79
  -4  -4  -2  160.38   39.40
   4  -4   2  186.38   41.20
   4   4   2  232.48   43.90
   4   4   2  191.18   21.60
  -4  -5   2  117.39   44.20
   4  -5  -2  150.28   50.79
  -4   5   2  112.39   33.80
   4   5  -2  164.88   41.40
   3  -5  -2  568.14   44.90
  -3  -5   2  391.86   71.69
  -3  -5   2  431.56   56.29
  -3  -5   2  471.95   38.50
  -3   5   2  509.45   51.89
   3   5  -2  432.16   34.80
   3   5  -2  381.46   37.90
  -3   5   2  461.65   40.40
  -2  -5   2 1203.28   95.59
   2  -5  -2 1374.06   97.19
  -2  -5   2 1358.96  102.39
  -2  -5   2 1350.76   96.29
   2  -5  -2 1401.96   97.19
   2  -5  -2 1370.86  103.39
  -2   5   2 1393.66   99.59
  -2   5   2 1292.17   96.79
   2   5  -2 1496.65   99.99
   2   5  -2 1377.56   94.59
   2   5  -2 1389.86   96.89
  -1  -5   2 1063.19   77.39
  -1  -5   2 1109.29   82.59
   1  -5  -2 1038.90   77.89
   1  -5  -2  932.81   84.79
   1  -5  -2 1045.30   78.49
  -1   5   2 1125.69   85.29
   1   5  -2 1157.48   76.89
   1   5  -2 1077.89   77.99
  -1   5   2 1098.69   78.59
  -1   5   2 1080.59   77.99
   1   5  -2 1128.49   79.49
   0  -5  -2 2904.61  206.58
   0  -5   2 2691.33  206.38
   0  -5  -2 3118.09  207.28
   0  -5   2 2995.40  208.48
   0   5   2 2862.31  205.18
   0   5  -2 3205.18  206.68
   0   5  -2 3223.18  209.18
   0   5   2 3076.09  208.88
   0   5   2 2972.70  206.68
   0   5  -2 3138.79  206.98
   1  -5   2  345.77   43.30
   1  -5   2  300.27   29.70
  -1  -5  -2  283.87   28.50
   1  -5   2  270.97   24.30
  -1  -5  -2  367.76   57.29
  -1  -5  -2  317.47   35.30
  -1   5  -2  268.97   28.60
   1   5   2  294.37   37.80
  -1   5  -2  285.27   35.00
   1   5   2  274.57   28.40
   1   5   2  280.77   23.80
  -2  -5  -2   78.99   14.10
   2  -5   2  164.28   39.80
  -2  -5  -2   93.59   26.40
   2  -5   2   97.89   17.30
   2   5   2  113.79   17.00
  -2   5  -2   66.59   21.70
   2   5   2   90.59   24.90
  -2   5  -2   82.29   16.40
  -2   5  -2  107.19   16.10
   3  -5   2   86.39   30.70
  -3  -5  -2   58.89   14.30
  -3  -5  -2   12.40   28.20
   3  -5   2  103.39   28.30
  -3   5  -2   27.90   26.30
   3   5   2   27.40   14.60
   3  -6  -2   78.29   35.80
  -3  -6   2  -57.09   43.90
  -3  -6   2  -19.70   31.60
   3  -6  -2   52.19   21.90
  -3   6   2  -19.20   27.10
   3   6  -2   44.40   26.20
   2  -6  -2  126.59   32.80
  -2  -6   2  120.09   32.00
  -2  -6   2  155.18   24.70
   2   6  -2  120.49   21.40
   2   6  -2  195.38   39.40
  -2   6   2  138.29   26.50
   1  -6  -2   45.70   19.80
   1  -6  -2   13.40   16.80
  -1  -6   2   20.30   40.70
   1  -6  -2    3.70   27.00
  -1  -6   2   17.30   23.80
   1   6  -2   14.80   20.20
   1   6  -2  -16.50   13.80
  -1   6   2  -20.00   15.10
  -1   6   2   13.10   17.50
   1   6  -2   13.40   14.00
   0  -6  -2  542.35   45.30
   0  -6   2  512.55   44.90
   0  -6  -2  559.84   49.50
   0   6   2  462.65   44.70
   0   6  -2  509.25   45.90
   0   6   2  485.35   43.40
   0   6  -2  541.25   46.60
   0   6   2  532.65   55.49
   0   6  -2  601.74   50.49
  -1  -6  -2  188.08   57.99
   1  -6   2  183.98   51.09
   1  -6   2  131.99   30.10
  -1  -6  -2  121.99   22.40
  -1  -6  -2  157.78   33.10
   1   6   2  114.29   18.10
  -1   6  -2  142.69   34.10
   1   6   2  138.89   21.10
   1   6   2  180.48   36.70
  -1   6  -2  117.19   21.00
  -2  -6  -2 1360.66  107.79
   2  -6   2 1575.74  115.39
  -2  -6  -2 1252.07  136.29
   2  -6   2 1588.34  108.69
  -2   6  -2 1549.54  102.79
   2   6   2 1493.55  109.79
   2   6   2 1413.96  109.19
  -2   6  -2 1221.18  107.09
   3  -6   2   96.39   52.29
  -2  -7   2  505.75   83.79
   2  -7  -2  459.95   95.39
   2  -7  -2  566.94   55.39
  -2  -7   2  509.65  103.59
   2   7  -2  621.64   60.69
   1  -7  -2  132.19   39.10
   1  -7  -2   90.09   23.70
  -1  -7   2   67.69   29.60
   1   7  -2   87.09   18.30
  -1   7   2  153.58   34.80
  -1   7   2   41.30   25.40
   0  -7   2  500.75   44.90
   0  -7   2  509.75   53.49
   0  -7  -2  506.85   51.29
   0  -7  -2  513.35   46.00
   0   7  -2  472.25   45.90
   0   7  -2  381.46   46.10
   0   7   2  396.36   42.20
  -1  -7  -2   70.09   44.60
   1  -7   2   67.19   38.90
  -1  -7  -2   57.29   27.60
   1  -7   2   66.89   27.50
  -1   7  -2   20.80   23.00
   1   7   2  101.29   32.10
   2  -7   2  196.88   45.00
  -2  -7  -2   23.70   55.89
   2   7   2  112.09   41.40
   5   0  -3  738.43   67.39
   5   0  -3  752.52   78.89
   5   0  -3  870.81   71.19
   4   0  -3  -16.30   26.90
   4   0  -3   23.00   17.40
   4   0  -3   -0.20   20.30
   4   0  -3  -16.10   17.60
   3   0  -3 4056.99  258.07
   3   0  -3 3848.72  260.57
  -3   0   3 3417.96  258.47
   3   0  -3 3868.41  256.17
  -3   0   3 3612.04  255.07
   2   0  -3   -4.60    6.80
   2   0  -3    1.50    8.90
   2   0  -3    0.10    7.30
   2   0  -3   -0.40    2.30
   2   0  -3    4.50    1.90
  -2   0   3    0.40    8.40
  -2   0   3    9.30    8.00
   2   0  -3   10.10    6.90
  -2   0   3   15.20    7.20
   2   0  -3   10.90    7.30
   1   0  -3  928.81   64.29
   1   0  -3  908.31   64.99
   1   0  -3  984.00   64.29
  -1   0   3 1037.70   64.49
   1   0  -3 1011.60   64.79
  -1   0   3  919.61   65.09
   1   0  -3  917.71   65.19
   1   0  -3  900.11   65.09
  -1   0   3  912.11   64.39
   1   0  -3  949.01   65.09
   0   0   3   44.40    7.30
   0   0   3   72.39    8.10
   0   0  -3   48.50    8.70
   0   0  -3   66.09    7.70
   0   0  -3   43.10    8.70
   0   0  -3   68.09    8.20
   0   0  -3   65.09    7.30
   0   0   3   49.10    6.90
   1   0   3 2712.33  204.78
  -1   0  -3 2949.30  205.88
  -1   0  -3 3169.28  207.18
   1   0   3 3321.67  206.28
  -2   0  -3   19.60    8.10
   2   0   3   17.50   13.70
   2   0   3   15.70    6.40
  -2   0  -3    4.60    5.30
  -2   0  -3   -6.20   10.90
  -2   0  -3   16.40   13.90
   3   0   3 3355.96  227.88
  -3   0  -3 3356.66  229.08
  -3   0  -3 3555.04  227.68
  -3   0  -3 3201.68  227.18
   3   0   3 3022.60  228.18
   3   0   3 3531.75  232.68
  -3   0  -3 3541.85  233.88
   4   0   3   17.90   33.10
   4   0   3   13.30   14.90
  -4   0  -3   42.80   16.00
   5   0   3  407.26   65.69
   5   0   3  376.96   37.70
   5  -1  -3   21.40   27.60
   5  -1  -3   -5.80   20.20
   5  -1  -3   71.79   38.40
   5   1  -3  -24.60   24.80
   5   1  -3   -3.00   33.20
   5   1  -3  -11.60   23.30
   5   1  -3  -13.10   32.90
   4  -1  -3  -21.80   25.70
   4  -1  -3   -9.20   18.90
  -4  -1   3   50.49   24.80
   4  -1  -3    1.00   20.00
   4   1  -3  -14.40   28.00
  -4   1   3   28.30   13.50
  -4   1   3   32.40   18.10
   4   1  -3   18.80   16.90
  -3  -1   3 1294.57   89.69
  -3  -1   3 1310.57   88.49
   3  -1  -3 1201.18   83.89
   3  -1  -3 1276.27   91.79
   3  -1  -3 1031.80   90.69
  -3  -1   3 1256.97   87.59
  -3   1   3 1204.38   86.69
   3   1  -3 1268.77   88.59
  -3   1   3 1271.57   88.39
   3   1  -3 1284.07   87.59
   2  -1  -3 1208.78   89.39
   2  -1  -3 1318.37   91.59
   2  -1  -3 1087.39   90.59
  -2  -1   3 1306.87   90.29
   2  -1  -3 1472.85   88.69
  -2  -1   3 1353.26   90.19
   2  -1  -3 1250.77   90.19
  -2  -1   3 1335.47   88.59
  -2  -1   3 1403.16   90.99
  -2   1   3 1253.57   90.39
   2   1  -3 1241.38   89.99
  -2   1   3 1278.07   89.99
   2   1  -3 1317.37   90.29
   2   1  -3 1384.16   90.79
  -2   1   3 1301.47   90.59
  -2   1   3 1359.86   88.69
   0   1  -3 3209.18  216.58
  -1  -1  -3 6550.34  441.06
  -2  -1  -3 1527.15  111.09
   2  -1   3 1674.13  114.29
  -2  -1  -3 1861.61  111.39
  -2  -1  -3 1437.56  115.59
  -2  -1  -3 1786.72  112.89
   2  -1   3 1364.76  114.29
   2  -1   3 1694.03  109.69
  -2  -1  -3 1633.64  112.59
   2  -1   3 1393.16  110.99
   2  -1   3 1483.15  109.39
  -2   1  -3 1704.13  112.29
   2   1   3 1483.45  109.79
  -2   1  -3 1828.82  114.79
   2   1   3 1814.42  113.09
   2   1   3 1637.04  110.89
  -2   1  -3 1588.14  110.29
   3  -1   3  293.87   45.90
  -3  -1  -3  410.76   44.20
  -3  -1  -3  409.46   40.30
   3  -1   3  408.36   30.70
  -3  -1  -3  414.56   31.40
  -3  -1  -3  349.57   29.80
   3  -1   3  370.06   28.90
   3  -1   3  328.37   44.40
  -3  -1  -3  404.16   28.60
   3   1   3  353.56   29.90
   3   1   3  447.66   42.10
   3   1   3  405.66   33.30
  -3   1  -3  440.66   36.20
  -3   1  -3  382.56   29.00
  -4  -1  -3   31.00   19.50
   4  -1   3   10.60    9.60
   4  -1   3  -15.40   13.10
   4  -1   3    0.80   45.70
  -4   1  -3    0.00    7.80
   4   1   3   34.40   15.50
  -4   1  -3   38.90   19.30
   4   1   3   -5.00   27.80
  -5  -1  -3   62.89   34.70
   5  -1   3   19.40   42.40
   5  -1   3  132.89   42.80
   5   1   3   80.99   34.40
   5   1   3   59.89   41.20
  -5   1  -3   78.99   26.40
   5  -2  -3  160.78   33.30
   5  -2  -3  201.28   42.90
   5  -2  -3  246.18   47.30
   5   2  -3  191.28   41.70
   5   2  -3  251.67   40.00
   4  -2  -3 1505.55  115.79
  -4  -2   3 1702.63  117.99
   4  -2  -3 1544.55  114.59
  -4  -2   3 1589.54  113.99
   4   2  -3 1516.95  112.59
   4   2  -3 1622.44  114.09
  -4   2   3 1537.15  110.19
  -3  -2   3  487.75   41.90
   3  -2  -3  437.16   38.90
   3  -2  -3  427.66   38.80
  -3  -2   3  380.06   30.90
  -3  -2   3  509.05   39.20
   3  -2  -3  413.16   31.90
  -3   2   3  399.06   31.60
   3   2  -3  422.66   39.40
  -3   2   3  482.35   40.20
  -3   2   3  476.15   35.20
   3   2  -3  412.26   38.30
   3   2  -3  392.46   30.40
   2  -2  -3 3440.76  241.88
  -2  -2   3 3728.03  241.58
  -2  -2   3 3783.72  243.98
  -2  -2   3 3547.45  243.48
   2  -2  -3 3298.77  242.88
  -2   2   3 3723.33  241.88
   2   2  -3 3245.98  243.08
  -2   2   3 3477.55  242.98
  -2   2   3 3595.94  242.98
   2   2  -3 3939.51  243.28
   1  -2  -3  185.68   15.30
   1  -2  -3  165.38   17.30
   1  -2  -3  185.48   14.70
   1  -2  -3  161.28   19.30
  -1  -2   3  183.58   19.20
  -1  -2   3  169.28   15.10
   1   2  -3  188.88   17.90
  -1   2   3  179.38   15.10
  -1   2   3  189.18   16.90
   1   2  -3  176.68   18.50
   1   2  -3  196.98   15.40
   1   2  -3  181.08   17.20
   0  -2  -3   36.20    7.00
   0  -2   3   43.80   10.00
   0  -2   3   29.40    8.00
   0  -2  -3   23.40   10.70
   0  -2  -3   41.80    7.50
   0  -2  -3   43.20    9.20
   0  -2   3   52.89    8.50
   0   2   3   22.70    6.00
   0   2  -3   32.60    8.30
   0   2  -3   39.20    8.10
   0   2  -3   42.20    6.70
   0   2   3   31.20    7.40
   0   2   3   28.00   10.10
   0   2  -3   29.90    7.60
   1  -2   3  264.27   26.30
  -1  -2  -3  209.98   32.00
   1  -2   3  282.87   24.60
  -1  -2  -3  309.87   24.50
  -1  -2  -3  292.27   21.30
  -1  -2  -3  245.88   23.20
   1  -2   3  282.57   21.80
   1  -2   3  281.17   24.10
  -1   2  -3  287.97   21.80
  -1   2  -3  236.18   25.30
   1   2   3  245.98   32.30
  -1   2  -3  259.27   22.40
   1   2   3  299.07   21.50
   1   2   3  302.57   23.70
   1   2   3  280.77   24.00
  -1   2  -3  290.37   24.80
  -2  -2  -3 3105.49  206.38
  -2  -2  -3 2941.11  202.98
   2  -2   3 2938.41  206.88
   2  -2   3 2873.01  203.48
  -2   2  -3 2930.91  203.28
   2   2   3 3074.99  204.08
   2   2   3 3039.70  203.68
  -2   2  -3 3080.79  205.28
   3  -2   3  989.90   74.79
   3  -2   3  899.41   65.09
   3  -2   3  965.60   76.39
  -3  -2  -3  752.02   78.29
  -3  -2  -3  952.10   71.49
  -3  -2  -3  922.61   63.59
  -3   2  -3  930.11   64.09
   3   2   3  944.11   67.49
   3   2   3  941.41   63.79
   3   2   3  777.92   62.79
  -3   2  -3  967.10   70.59
   4  -2   3 1408.06  108.49
  -4  -2  -3 1160.08   85.59
  -4  -2  -3 1186.68  104.69
   4  -2   3 1314.57  102.69
  -4  -2  -3 1276.97   96.19
   4   2   3 1207.48   88.69
   4   2   3 1279.17   91.59
   4   2   3 1225.98   98.89
   4  -3  -3   34.40   21.10
  -4  -3   3   41.20   27.30
  -4  -3   3   34.10   22.10
   4  -3  -3   47.10   23.60
  -4   3   3   42.70   24.80
   4   3  -3   19.00   23.80
   4   3  -3   30.80   18.60
  -4   3   3   26.50   21.60
   3  -3  -3   40.30   17.70
   3  -3  -3   36.30   14.30
  -3  -3   3   20.30   20.70
   3   3  -3   14.00   16.80
  -3   3   3   32.80   16.60
  -2  -3   3 3907.51  288.97
  -2  -3   3 3940.81  285.67
  -2  -3   3 4571.04  285.37
   2  -3  -3 4169.88  285.67
   2  -3  -3 4502.55  285.77
   2  -3  -3 4153.88  286.97
  -2  -3   3 4277.87  287.97
   2  -3  -3 4001.10  284.97
   2   3  -3 4675.03  286.77
   2   3  -3 4045.90  286.37
  -2   3   3 4471.45  285.47
  -2   3   3 4355.16  286.37
   2   3  -3 3764.62  285.67
   1  -3  -3   49.80   10.30
   1  -3  -3   45.70   15.20
  -1  -3   3   68.59   15.70
   1  -3  -3   59.89    9.40
  -1  -3   3   48.10    8.80
   1   3  -3   55.79    9.20
  -1   3   3   63.99   10.80
   1   3  -3   31.50   10.50
   1   3  -3   72.79   13.40
   1   3  -3   47.40   11.00
   0  -3   3 6789.72  493.85
   0  -3  -3 7861.81  494.05
  -1  -3  -3   18.90    7.80
   1  -3   3   23.10   12.50
  -1  -3  -3   12.70   21.70
  -1  -3  -3   25.50   13.10
   1  -3   3   40.20   14.00
   1  -3   3   12.50    8.60
   1   3   3    8.90   11.70
  -1   3  -3   14.90    8.60
  -1   3  -3   28.00   11.80
  -1   3  -3   19.00    5.00
   1   3   3   10.40    6.00
  -2  -3  -3 2381.16  156.38
   2  -3   3 2268.47  160.18
  -2  -3  -3 2373.36  159.18
   2  -3   3 2251.17  156.78
  -2  -3  -3 1996.50  166.08
   2  -3   3 2235.28  159.18
   2   3   3 2385.76  156.78
  -2   3  -3 2324.37  156.68
  -2   3  -3 2340.27  159.28
   2   3   3 2331.17  158.08
   3  -3   3    9.70    9.50
  -3  -3  -3   17.30   22.30
   3  -3   3   27.40   24.70
   3  -3   3  -20.40   27.80
  -3  -3  -3   -0.10    7.70
   3   3   3   26.60   18.10
  -3   3  -3   10.90   19.30
   3   3   3    5.90    8.90
  -3   3  -3   -3.00    8.30
   4  -3   3   -9.90   38.40
  -4  -3  -3  -18.60   36.50
   4  -3   3   54.99   35.50
  -4  -3  -3   50.59   28.50
  -4  -3  -3   25.80    9.00
  -4   3  -3   51.39   28.60
   4   3   3   47.10   21.30
   4  -4  -3 1103.99   87.59
  -4  -4   3  993.20   73.99
  -4  -4   3 1112.49   89.09
  -4  -4   3 1004.20   90.99
   4  -4  -3 1019.10   79.39
   4   4  -3  962.00   75.89
  -4   4   3 1068.89   85.89
  -4   4   3 1009.10   76.59
   4   4  -3 1147.89   84.29
  -3  -4   3  277.57   46.70
   3  -4  -3  372.96   34.10
  -3  -4   3  401.76   47.80
  -3  -4   3  342.77   30.10
   3  -4  -3  377.96   43.70
   3   4  -3  306.27   29.80
  -3   4   3  386.16   34.90
   3   4  -3  314.27   34.40
  -3   4   3  392.26   44.70
   3   4  -3  367.86   31.60
   3   4  -3  401.46   57.19
   2  -4  -3 2322.97  155.58
  -2  -4   3 2313.27  155.08
  -2  -4   3 2314.27  159.48
  -2  -4   3 2067.19  163.78
   2  -4  -3 2198.68  154.88
   2  -4  -3 2201.48  158.08
   2   4  -3 2468.25  157.08
  -2   4   3 2298.77  156.58
   2   4  -3 2410.16  155.38
  -2   4   3 2276.87  155.18
   2   4  -3 2006.40  154.28
  -1  -4   3  356.46   36.80
  -1  -4   3  323.07   29.70
   1  -4  -3  362.96   29.70
   1  -4  -3  288.07   37.70
   1  -4  -3  372.76   30.50
   1   4  -3  368.96   29.70
  -1   4   3  353.36   29.20
   1   4  -3  345.97   29.40
   1   4  -3  368.76   32.20
  -1   4   3  316.07   38.80
  -1   4   3  370.46   31.00
   0  -4  -3  207.78   35.00
   0  -4   3  141.59   31.00
   0  -4  -3  207.48   23.70
   0  -4  -3  156.68   17.80
   0  -4   3  224.28   28.00
   0  -4  -3  201.98   20.20
   0   4   3  202.48   20.20
   0   4   3  186.78   19.00
   0   4  -3  190.18   21.40
   0   4  -3  168.78   22.40
   0   4  -3  217.28   23.10
   0   4   3  199.88   35.10
   0   4  -3  181.58   20.60
  -1  -4  -3   87.69   15.50
  -1  -4  -3   91.09   17.80
   1  -4   3  107.49   27.10
   1  -4   3   83.79   17.10
  -1  -4  -3   25.50   26.30
  -1   4  -3   59.39   10.80
   1   4   3   86.39   15.40
  -1   4  -3   69.39   16.00
   1   4   3   55.49   16.70
  -2  -4  -3 1409.56  130.09
  -2  -4  -3 1581.74  117.69
   2  -4   3 1778.92  119.09
  -2  -4  -3 1691.93  114.09
   2  -4   3 1678.93  114.99
   2  -4   3 1726.63  119.19
  -2   4  -3 1574.44  117.19
   2   4   3 1602.34  116.99
   2   4   3 1746.83  114.79
  -2   4  -3 1625.14  114.39
   3  -4   3  741.33   64.19
  -3  -4  -3  585.34   49.00
  -3  -4  -3  640.04   61.09
   3  -4   3  722.43   66.59
   3   4   3  758.32   60.09
   3   4   3  592.84   50.19
  -3   4  -3  607.14   61.49
   4  -4   3  692.23   71.99
   4  -4   3  580.14   75.19
  -4  -4  -3  565.74   63.39
  -4  -4  -3  434.66   75.39
   4   4   3  632.74   59.09
  -4   4  -3  492.75   65.49
  -4  -5   3  -65.79   58.99
  -4  -5   3  -19.00   35.70
  -4   5   3   20.90   29.90
   4   5  -3   36.70   33.00
   3  -5  -3  336.67   35.00
   3  -5  -3  341.37   47.90
  -3  -5   3  236.48   59.39
  -3  -5   3  270.07   28.50
   3   5  -3  276.47   41.60
   3   5  -3  253.67   26.70
  -3   5   3  262.87   42.00
   2  -5  -3  537.35   44.40
   2  -5  -3  565.24   55.69
  -2  -5   3  534.95   43.70
  -2  -5   3  540.75   54.99
   2  -5  -3  611.24   45.60
  -2   5   3  537.95   49.00
   2   5  -3  564.94   42.80
   2   5  -3  514.65   44.00
  -2   5   3  498.55   44.10
   2   5  -3  586.04   49.99
   1  -5  -3 1134.79  100.89
  -1  -5   3 1321.87   94.79
   1  -5  -3 1369.46   95.39
  -1  -5   3 1383.06   99.89
   1  -5  -3 1291.47   95.19
   1   5  -3 1391.96   95.29
   1   5  -3 1404.26   96.19
  -1   5   3 1338.27   95.39
  -1   5   3 1402.86  102.09
   1   5  -3 1395.36   94.59
  -1   5   3 1333.67   95.09
   0  -5  -3 1669.03  112.09
   0  -5   3 1772.92  118.99
   0  -5   3 1468.35  110.79
   0  -5  -3 1513.25  110.79
   0  -5   3 1573.94  113.89
   0   5   3 1498.05  109.19
   0   5  -3 1581.04  111.09
   0   5  -3 1578.04  118.29
   0   5  -3 1661.53  111.49
   0   5   3 1557.74  110.89
   0   5   3 1533.55  114.99
   1  -5   3 3035.80  203.58
   1  -5   3 3112.39  205.78
  -1  -5  -3 3129.19  200.08
   1  -5   3 2766.32  201.28
  -1  -5  -3 2973.30  202.58
  -1  -5  -3 2798.92  200.78
  -1   5  -3 3375.46  202.78
   1   5   3 2628.44  202.78
  -1   5  -3 2901.11  199.08
   1   5   3 2855.41  201.18
  -1   5  -3 2875.51  202.38
  -1   5  -3 2735.73  200.98
  -2  -5  -3  367.76   33.30
   2  -5   3  456.55   50.09
  -2  -5  -3  393.16   45.70
   2  -5   3  377.96   35.80
   2   5   3  335.37   33.80
  -2   5  -3  357.56   34.50
   2   5   3  376.96   64.79
  -2   5  -3  341.37   46.00
  -3  -5  -3  204.28   44.90
   3   5   3  198.98   31.90
   3   5   3  250.27   43.90
  -3   5  -3  148.89   33.60
   3  -6  -3  513.85   51.69
  -3  -6   3  344.37   61.19
  -3  -6   3  329.17   70.69
   3  -6  -3  444.36   62.79
  -3   6   3  346.27   51.69
   3   6  -3  459.35   53.29
  -2  -6   3   30.60   15.30
  -2  -6   3   -7.30   28.30
   2  -6  -3   22.90   31.80
   2  -6  -3   49.10   19.10
   2   6  -3   14.00   13.80
  -2   6   3   10.30   21.10
   2   6  -3   20.70   23.00
  -1  -6   3  251.17   44.40
   1  -6  -3  246.68   49.00
   1  -6  -3  310.17   35.00
   1  -6  -3  281.47   31.40
  -1   6   3  196.08   30.30
   1   6  -3  305.07   36.90
  -1   6   3  242.08   33.60
  -1   6   3  221.48   36.70
   1   6  -3  286.27   31.20
   1   6  -3  226.78   31.30
   0  -6  -3   87.99   36.90
   0  -6   3   65.09   28.10
   0  -6  -3   43.60   13.60
   0  -6   3   54.39   15.20
   0  -6   3   59.89   32.60
   0  -6  -3   67.69   21.90
   0   6  -3   60.89   19.70
   0   6  -3   52.69   19.00
   0   6  -3   20.00   14.70
   0   6   3   21.20   13.60
   0   6   3   39.20   24.30
   1  -6   3  175.28   60.19
   1  -6   3  145.29   28.70
  -1  -6  -3  139.89   25.30
  -1  -6  -3  114.19   28.40
  -1   6  -3  145.59   34.50
  -1   6  -3   87.99   17.00
   1   6   3  168.68   30.50
   1   6   3  136.89   20.80
   1   6   3  117.69   16.40
  -2  -6  -3   64.19   26.70
   2   6   3   94.59   27.60
  -2   6  -3   35.30   25.30
  -3  -6  -3  651.23  101.09
   3  -6   3  916.41   85.99
   3   6   3  850.21   84.39
   2  -7  -3  273.87   39.70
  -2  -7   3  186.58   61.69
   2  -7  -3  284.77   65.39
   2   7  -3  253.67   47.90
   1  -7  -3  797.72   77.49
   1  -7  -3  690.53   63.29
  -1  -7   3  714.03   71.39
   1   7  -3  780.02   66.49
  -1   7   3  879.21   89.19
   1   7  -3  632.24   59.29
   0  -7   3  190.68   30.80
   0  -7  -3  171.98   37.50
   0  -7  -3  177.38   31.10
   0  -7   3  130.79   31.90
   0   7  -3  140.69   36.00
   0   7   3  111.79   19.80
   0   7   3  102.69   24.60
   0   7   3  206.98   47.00
   0   7  -3  133.99   25.80
  -1  -7  -3  446.26   52.39
   1  -7   3  545.05   58.39
   1  -7   3  514.25   68.99
  -1   7  -3  370.36   49.70
   1   7   3  541.25   59.69
   5   0  -4    9.80   25.40
   5   0  -4  -23.90   22.60
   5   0  -4   18.80   40.50
   5   0  -4  -16.30   23.70
   4   0  -4 2520.75  172.38
   4   0  -4 2559.84  172.38
  -4   0   4 2459.55  170.88
   4   0  -4 2346.47  176.08
   4   0  -4 2489.45  172.48
   3   0  -4   34.90   12.60
   3   0  -4    9.50   12.40
   3   0  -4   13.00   17.50
  -3   0   4   16.80   14.80
   2   0  -4 7450.45  483.75
   2   0  -4 7109.19  483.35
   2   0  -4 7007.60  485.25
   1   0  -4   -2.50    5.30
   1   0  -4    9.40    6.00
   1   0  -4    8.40    3.10
  -1   0   4    8.90    6.00
   0   0  -4 3503.65  237.68
  -1   0  -4   28.10    9.40
  -1   0  -4    5.70    7.00
   1   0   4   17.60    4.80
   1   0   4    8.40    5.50
   1   0   4   21.30   10.00
  -1   0  -4   14.70    6.10
  -1   0  -4   21.10   11.20
  -2   0  -4 1652.23  111.29
  -2   0  -4 1729.83  108.49
  -2   0  -4 1455.25  106.69
  -2   0  -4 1598.54  106.59
   2   0   4 1309.57  107.89
   2   0   4 1455.55  105.39
   2   0   4 1629.74  108.89
   3   0   4   13.90   23.30
  -3   0  -4    9.90    8.00
  -3   0  -4   27.10   23.70
  -3   0  -4   -1.70    6.20
   3   0   4    7.90    9.40
  -3   0  -4   31.70   11.80
  -4   0  -4 1708.73  124.49
  -4   0  -4 1566.34  109.99
   4   0   4 1566.24  122.29
  -4   0  -4 1614.94  114.69
   5   0   4   35.30   47.50
  -5   0  -4   16.80   23.60
   5  -1  -4  160.98   40.20
   5  -1  -4   94.09   28.60
   5  -1  -4   93.69   25.40
   5   1  -4  122.09   27.90
   5   1  -4  133.39   28.30
   5   1  -4  167.68   37.30
   5   1  -4  128.89   39.90
   4  -1  -4  156.48   31.70
   4  -1  -4  115.79   23.50
   4  -1  -4  132.89   28.70
  -4  -1   4  210.08   37.60
   4   1  -4  126.59   23.40
   4   1  -4  132.19   25.40
   4   1  -4  152.18   30.10
   4   1  -4  125.19   32.20
  -3  -1   4   30.30   15.90
   3  -1  -4   -2.80   10.00
   3  -1  -4   18.40   13.00
   3  -1  -4    4.10   16.90
   3  -1  -4   16.80    4.40
   3  -1  -4   29.20   14.10
   3   1  -4   37.70   18.60
   3   1  -4   -8.80   14.50
  -3   1   4   30.20   11.40
   3   1  -4   32.00   12.60
  -3   1   4   20.50   14.00
  -2  -1   4 1848.32  120.49
   2  -1  -4 1869.91  120.09
  -2  -1   4 1706.93  120.89
   2  -1  -4 1927.01  121.69
   2  -1  -4 1664.93  120.79
   2  -1  -4 1788.92  119.99
  -2  -1   4 1716.93  121.09
  -2  -1   4 1845.52  121.69
  -2  -1   4 1757.72  120.09
  -2   1   4 1755.32  121.39
  -2   1   4 1652.73  121.39
  -2   1   4 1874.41  119.99
   2   1  -4 1535.45  120.89
   2   1  -4 1935.51  119.59
  -2   1   4 1797.02  121.59
   2   1  -4 1781.12  121.49
   2   1  -4 1558.24  121.89
  -1  -1   4 2405.56  176.38
   1  -1  -4 2774.12  176.38
  -1  -1   4 2662.73  176.08
  -1  -1   4 2795.52  175.08
   1  -1  -4 2594.44  176.28
  -1   1   4 2640.34  175.98
   1   1  -4 2471.35  175.08
  -1   1   4 2517.05  176.68
   1   1  -4 2491.35  175.88
   1   1  -4 2667.13  175.88
   1  -1   4 2427.26  168.18
  -1  -1  -4 2645.54  166.98
  -1  -1  -4 2296.47  166.08
  -1  -1  -4 2343.57  169.98
   1  -1   4 2431.06  167.88
  -1  -1  -4 2428.96  167.18
   1   1   4 2498.55  166.88
  -1   1  -4 2671.13  168.38
  -1   1  -4 2463.45  166.78
  -1   1  -4 2274.97  167.28
   1   1   4 2552.64  167.08
  -2  -1  -4 6290.27  375.86
  -2  -1  -4 4743.03  380.26
  -2  -1  -4 6262.87  376.46
   2  -1   4 5441.66  377.06
  -2  -1  -4 5805.42  376.86
   2  -1   4 5979.90  379.56
  -2  -1  -4 5123.39  377.26
   2  -1   4 5462.25  379.16
   2   1   4 5043.40  375.36
  -2   1  -4 5606.44  376.26
  -3  -1  -4  645.34   51.29
   3  -1   4  588.24   62.39
   3  -1   4  745.63   50.49
  -3  -1  -4  754.82   51.29
  -3  -1  -4  711.23   64.69
   3  -1   4  711.43   63.79
   3  -1   4  654.63   49.30
  -3  -1  -4  754.12   49.99
   3   1   4  806.12   60.09
   3   1   4  598.14   49.99
   3   1   4  719.83   52.79
  -3   1  -4  707.83   50.09
  -3   1  -4  755.82   55.99
  -4  -1  -4  138.49   15.20
  -4  -1  -4  138.29   35.80
   4  -1   4  151.28   18.50
   4  -1   4  209.18   38.80
  -4   1  -4  148.29   18.80
   4   1   4  164.78   35.00
  -4   1  -4  220.48   34.90
   5  -1   4  -10.60   49.10
   5  -1   4  105.89   48.00
   5   1   4  108.79   33.50
   5   1   4   32.10   53.89
  -5   1  -4   57.99   26.50
   5  -2  -4  192.28   46.70
   5  -2  -4  117.39   24.90
   5  -2  -4  208.48   48.90
   5   2  -4  124.99   28.60
   5   2  -4  109.19   32.20
  -4  -2   4  862.01   65.89
   4  -2  -4  822.32   67.69
   4  -2  -4  853.51   68.29
  -4  -2   4  925.31   71.99
   4   2  -4  799.92   66.29
   4   2  -4  778.92   70.69
  -4   2   4  763.02   69.99
  -4   2   4  830.32   63.29
  -3  -2   4 3645.54  243.18
   3  -2  -4 3055.39  239.78
   3  -2  -4 3316.37  240.48
   3  -2  -4 3754.52  239.28
  -3  -2   4 3395.86  238.78
   3  -2  -4 3518.85  241.68
  -3  -2   4 3671.43  241.38
  -3   2   4 3565.44  240.88
   3   2  -4 3425.66  241.58
  -3   2   4 3607.74  239.18
  -3   2   4 3613.34  241.88
   3   2  -4 3635.34  238.58
   3   2  -4 3768.52  242.18
  -2  -2   4 1724.53  115.59
   2  -2  -4 1560.14  117.19
   2  -2  -4 1595.44  115.39
  -2  -2   4 1746.33  116.89
  -2  -2   4 1670.53  116.89
  -2  -2   4 1766.72  118.59
  -2  -2   4 1689.63  117.09
   2   2  -4 1741.93  117.59
  -2   2   4 1579.74  117.99
  -2   2   4 1692.03  117.39
  -2   2   4 1812.82  115.99
   2   2  -4 1882.11  115.69
  -2   2   4 1744.43  115.79
   2   2  -4 1550.34  116.59
   1  -2  -4 4922.91  294.97
  -1   2   4 4141.39  296.47
   1   2  -4 3900.31  295.57
  -1   2   4 4496.25  294.87
   0  -2   4   52.09    9.30
   0  -2  -4   43.10    7.90
   0  -2   4   44.70    9.30
   0  -2  -4   47.20   10.10
   0  -2   4   62.19   12.40
   0  -2   4   43.00   11.40
   0  -2  -4   52.09    9.30
   0   2  -4   47.50    8.70
   0   2  -4   34.60   10.10
   0   2   4   37.70   11.30
   0   2  -4   54.79    8.40
   0   2  -4   63.39    9.20
   0   2   4   61.49   15.70
   0   2  -4   40.10    9.70
   0   2  -4   47.00    8.90
   0   2   4   51.29    9.10
   1  -2   4   17.20   12.90
   1  -2   4   34.90    7.20
   1  -2   4   24.60    9.10
  -1  -2  -4   29.00    8.90
  -1  -2  -4   35.30    6.30
   1  -2   4   23.30   10.00
  -1  -2  -4   42.50   10.50
   1   2   4   47.10   10.50
  -1   2  -4   35.80   10.30
   1   2   4   16.60   10.40
  -1   2  -4   18.10    6.50
  -2  -2  -4  138.39   35.30
   2  -2   4  182.58   19.00
  -2  -2  -4  204.48   18.30
  -2  -2  -4  225.48   26.30
   2  -2   4  209.98   32.80
   2  -2   4  217.98   33.30
   2   2   4  217.28   23.40
  -2   2  -4  197.28   18.80
   2   2   4  215.68   19.30
   3  -2   4  617.34   58.79
  -3  -2  -4  518.35   40.20
  -3  -2  -4  572.34   50.49
   3  -2   4  548.65   56.09
   3  -2   4  500.85   42.00
   3   2   4  583.74   41.10
   3   2   4  554.84   45.70
   3   2   4  570.64   53.59
  -3   2  -4  502.35   45.10
  -3   2  -4  556.84   49.99
  -4  -2  -4  291.07   23.50
   4  -2   4  296.97   55.49
  -4  -2  -4  232.98   58.09
  -4   2  -4  328.77   48.80
   4   2   4  266.07   28.60
   4   2   4  272.97   49.99
  -4  -3   4   31.40   28.10
   4  -3  -4   29.00   22.90
  -4  -3   4   30.20   20.10
   4  -3  -4   23.10   18.40
  -4   3   4   36.40   23.80
   4   3  -4   31.20   20.00
  -4   3   4   24.90   15.00
   4   3  -4    3.10   24.10
   3  -3  -4  176.28   30.70
  -3  -3   4  139.59   16.00
  -3  -3   4  173.78   34.90
   3  -3  -4  193.68   21.70
   3  -3  -4  160.48   17.50
   3   3  -4  140.89   16.00
  -3   3   4  169.78   30.60
  -3   3   4  137.09   17.20
   3   3  -4  124.39   29.80
  -2  -3   4  184.38   29.20
   2  -3  -4  207.18   19.30
   2  -3  -4  205.88   18.60
   2  -3  -4  231.38   27.30
  -2  -3   4  155.68   22.80
  -2  -3   4  168.18   18.10
   2   3  -4  184.48   20.90
   2   3  -4  200.78   19.00
  -2   3   4  193.48   18.30
  -2   3   4  245.08   25.40
   2   3  -4  209.88   24.90
   2   3  -4  143.09   24.90
   1  -3  -4 3667.33  247.78
   1  -3  -4 3387.06  250.07
  -1  -3   4 3210.18  251.67
  -1  -3   4 3794.12  250.47
   1  -3  -4 3779.12  249.97
  -1  -3   4 3170.18  250.57
  -1  -3   4 3751.32  248.58
   1  -3  -4 4005.70  248.98
   1   3  -4 3699.83  248.28
   1   3  -4 3457.65  248.68
   1   3  -4 3833.32  248.78
   1   3  -4 4219.18  248.88
  -1   3   4 3858.71  251.37
  -1   3   4 3510.45  248.48
   0  -3  -4   44.70   10.00
   0  -3  -4   53.29   18.00
   0  -3   4   42.50   13.40
   0  -3   4   32.90    7.80
   0  -3   4   69.19   15.60
   0   3   4   24.30   13.10
   0   3  -4   52.29   11.90
   0   3  -4   50.09    9.30
   0   3  -4   36.50   10.10
   0   3   4   33.50    7.00
   0   3   4   34.40    7.50
  -1  -3  -4 7503.15  504.05
   1  -3   4 6826.02  504.35
  -1   3  -4 7391.66  504.25
   1   3   4 8291.87  504.55
  -1   3  -4 7354.86  502.85
  -2  -3  -4   99.59   18.90
   2  -3   4   92.49   20.50
  -2  -3  -4   79.29   14.10
  -2  -3  -4   47.40   31.40
   2  -3   4   45.80   21.90
   2  -3   4   74.29   11.90
  -2   3  -4   65.39   11.50
   2   3   4   75.19   14.80
   2   3   4   53.19   15.70
  -2   3  -4   73.09   19.10
  -3  -3  -4 1443.66  102.09
  -3  -3  -4 1407.46   94.99
   3  -3   4 1207.08  106.39
   3  -3   4 1579.04  105.89
  -3  -3  -4 1134.39  113.19
  -3   3  -4 1382.16  101.69
  -3   3  -4 1342.97   95.19
   3   3   4 1383.16   98.99
   3   3   4 1357.76   96.09
   4  -3   4   35.20   36.80
   4  -3   4   10.70   39.90
  -4  -3  -4   35.90   31.70
  -4   3  -4    2.90   26.30
   4   3   4   57.59   22.70
  -4  -4   4  197.78   41.30
   4  -4  -4  257.67   33.90
   4  -4  -4  335.27   48.60
  -4  -4   4  255.87   25.90
  -4  -4   4  271.47   46.50
  -4   4   4  322.87   47.30
   4   4  -4  295.87   45.10
  -4   4   4  235.98   34.00
   4   4  -4  285.87   34.30
  -3  -4   4 1326.57  105.99
  -3  -4   4 1380.56   96.69
   3  -4  -4 1403.86  103.59
  -3  -4   4 1530.35  105.09
   3  -4  -4 1340.27  103.09
   3   4  -4 1352.86   96.79
   3   4  -4 1364.76   98.29
  -2  -4   4  555.94   42.80
   2  -4  -4  544.85   50.99
   2  -4  -4  561.84   43.20
   2  -4  -4  581.04   42.60
  -2  -4   4  557.84   55.89
   2   4  -4  573.04   47.10
  -2   4   4  576.94   47.10
  -2   4   4  544.05   42.80
   2   4  -4  545.85   42.60
   2   4  -4  563.24   43.90
   1  -4  -4 3777.02  251.47
   1  -4  -4 3591.64  250.57
  -1  -4   4 3877.91  254.07
  -1  -4   4 3630.84  254.57
   1  -4  -4 3196.58  253.47
  -1  -4   4 4096.29  258.57
  -1   4   4 3641.34  251.27
   1   4  -4 4055.19  251.57
   1   4  -4 3387.26  250.97
  -1   4   4 3881.51  255.17
   1   4  -4 3723.43  251.47
  -1   4   4 3528.55  250.97
   0  -4   4  693.03   58.79
   0  -4   4  731.33   56.59
   0  -4  -4  730.23   52.99
   0  -4  -4  705.83   51.89
   0   4  -4  706.43   52.09
   0   4   4  675.33   51.59
   0   4   4  663.03   56.79
   0   4  -4  720.73   54.19
   0   4  -4  756.72   52.89
   0   4  -4  685.93   51.49
   0   4   4  685.73   50.49
   1  -4   4   71.19   19.30
  -1  -4  -4   51.69   16.20
  -1  -4  -4   48.10    9.70
  -1  -4  -4   -1.90   28.00
   1  -4   4   48.70   11.60
   1   4   4   44.60   17.40
   1   4   4   39.30   10.50
  -1   4  -4   24.00   12.30
  -1   4  -4   58.09   12.50
  -1   4  -4   74.99   17.90
   2  -4   4    0.70   16.40
   2  -4   4   36.60   20.90
  -2  -4  -4    4.50   19.50
  -2  -4  -4    3.20    8.70
   2  -4   4   30.90   25.50
   2   4   4    9.90   11.20
  -2   4  -4    1.90   19.30
   2   4   4    9.00   19.70
  -2   4  -4    3.90    9.50
  -3  -4  -4  561.44   57.49
  -3  -4  -4  573.34   44.70
   3  -4   4  634.34   85.99
   3  -4   4  696.93   62.09
  -3  -4  -4  450.25   80.89
   3   4   4  617.94   55.49
  -3   4  -4  515.55   58.79
   3   4   4  546.35   46.10
  -4  -4  -4  219.68   40.00
   4  -4   4  161.68   48.20
  -4   4  -4  113.89   36.30
  -4  -5   4   18.20   33.10
  -4  -5   4  -30.10   63.89
   4  -5  -4   76.99   20.60
   4  -5  -4  119.19   58.79
   4   5  -4   56.39   30.50
  -4   5   4   47.60   28.60
   3  -5  -4   71.09   30.10
  -3  -5   4   32.50   12.30
  -3  -5   4   23.60   29.50
  -3   5   4   -9.70   21.50
  -3   5   4    9.50   23.00
   3   5  -4   41.40   23.20
  -2  -5   4  342.57   31.80
  -2  -5   4  286.97   49.80
   2  -5  -4  327.17   57.09
   2  -5  -4  391.06   32.90
  -2  -5   4  297.47   60.09
   2  -5  -4  352.36   32.30
  -2   5   4  357.96   38.00
  -2   5   4  304.67   31.30
  -2   5   4  238.88   50.19
   2   5  -4  370.56   32.10
   2   5  -4  360.06   38.80
   2   5  -4  300.17   31.20
  -1  -5   4  252.07   38.80
   1  -5  -4  270.77   27.60
   1  -5  -4  281.97   29.40
  -1  -5   4  253.07   27.00
   1  -5  -4  199.48   40.30
  -1   5   4  257.97   29.40
   1   5  -4  259.67   30.80
   1   5  -4  241.98   27.10
  -1   5   4  242.88   26.80
   1   5  -4  299.57   29.30
   0  -5  -4 1278.27   89.09
   0  -5   4 1264.77   92.79
   0  -5   4 1159.88   88.19
   0  -5   4 1260.57   97.29
   0  -5  -4 1292.27   96.29
   0   5  -4 1258.37   89.49
   0   5   4 1195.78   86.29
   0   5   4 1171.08   92.79
   0   5  -4 1257.07   90.29
   0   5   4 1203.48   87.89
   0   5  -4 1245.28   88.39
   1  -5   4 1064.19   78.99
  -1  -5  -4 1229.18   75.89
  -1  -5  -4 1070.09   81.09
  -1  -5  -4  978.80   73.49
   1  -5   4 1205.98   84.89
  -1  -5  -4  960.30   80.59
   1  -5   4 1144.99   86.89
  -1   5  -4  999.00   80.99
   1   5   4  995.60   83.59
  -1   5  -4 1249.07   75.59
   1   5   4 1040.80   78.39
  -1   5  -4 1024.00   78.39
   2  -5   4 1638.54  131.39
   2  -5   4 1834.52  129.99
  -2  -5  -4 1540.75  110.19
  -2   5  -4 1472.35  110.39
   2   5   4 1495.85  115.09
  -2   5  -4 1468.05  114.89
   2   5   4 1556.34  110.99
  -3  -5  -4  158.98   63.79
  -3  -5  -4  220.88   35.80
  -3   5  -4  154.48   34.70
   3  -6  -4   51.99   19.30
  -3  -6   4  -51.29   38.20
  -3  -6   4  -31.00   40.40
   3  -6  -4   70.79   40.40
   3   6  -4   28.40   27.60
  -3   6   4   14.10   25.50
  -2  -6   4  692.53   97.89
  -2  -6   4  914.51   80.49
   2  -6  -4  926.21   68.59
   2  -6  -4  783.32   78.39
   2   6  -4  908.71   66.19
  -2   6   4  886.71   71.39
  -2   6   4  886.11   85.89
   2   6  -4  976.90   72.99
   1  -6  -4   29.30   17.90
  -1  -6   4    6.70   27.60
  -1  -6   4   45.00   40.60
   1  -6  -4   17.50   27.60
   1  -6  -4   10.90   13.60
   1   6  -4   24.20   16.50
   1   6  -4   24.70   20.30
  -1   6   4  -37.80   28.10
  -1   6   4   17.60   16.70
  -1   6   4   -2.00   19.20
   0  -6   4  323.57   47.50
   0  -6  -4  314.27   33.30
   0  -6  -4  323.77   38.50
   0  -6   4  304.87   34.30
   0   6  -4  364.36   37.10
   0   6   4  314.27   33.70
   0   6  -4  304.57   38.00
   0   6  -4  298.57   33.20
   0   6   4  256.67   32.00
   0   6   4  239.48   45.40
  -1  -6  -4   51.39   38.90
  -1  -6  -4   51.89   16.30
   1  -6   4   81.09   26.70
   1  -6   4   59.79   17.00
  -1  -6  -4   61.19   26.30
   1   6   4   41.60   28.00
  -1   6  -4   39.90   27.70
  -1   6  -4   23.80   16.20
   1   6   4   19.30   16.30
  -1   6  -4   92.19   24.20
   2  -6   4   63.39   34.00
  -2  -6  -4    6.10   25.30
   2  -6   4  101.39   34.20
   2   6   4   51.59   27.50
   3  -6   4   56.29   49.99
   3  -6   4   92.99   39.10
   3   6   4   74.49   33.80
  -2  -7   4   43.90   36.80
  -2  -7   4   97.39   55.19
  -2   7   4   64.49   26.20
   2   7  -4  117.39   29.20
  -1  -7   4  174.48   40.00
   1  -7  -4  252.87   55.79
   1  -7  -4  201.98   38.30
   1   7  -4  237.38   41.00
  -1   7   4  238.28   56.19
  -1   7   4  160.98   37.60
   0  -7  -4  717.93   59.09
   0  -7   4  698.13   55.99
   0  -7   4  690.53   66.19
   0  -7  -4  647.54   57.69
   0   7   4  577.14   50.69
   0   7  -4  583.84   55.59
   0   7   4  544.25   53.89
   0   7  -4  640.14   58.19
   1  -7   4  410.06   66.19
  -1  -7  -4  272.97   46.60
   1  -7   4  389.96   54.19
  -1   7  -4  244.78   45.80
   1   7   4  408.26   56.99
   5   0  -5  152.98   36.00
   5   0  -5  107.59   26.80
   5   0  -5   69.59   26.30
   5   0  -5  111.39   28.50
   4   0  -5  -18.00   24.80
   4   0  -5    9.50   19.30
   4   0  -5    6.60   17.60
  -3   0   5 5310.37  374.96
   3   0  -5 5361.06  374.06
   3   0  -5 5721.93  375.46
  -3   0   5 5264.27  375.56
   3   0  -5 5739.33  374.76
   3   0  -5 5839.72  376.56
   2   0  -5    9.90    9.30
  -2   0   5   16.50    8.40
   2   0  -5   24.30    6.40
   2   0  -5   27.50    9.80
  -2   0   5   26.30    9.40
   2   0  -5   25.20    5.20
   2   0  -5   15.10    6.50
   1   0  -5 7258.07  489.75
   0   0  -5   14.10    6.40
   0   0   5    0.80    5.70
   0   0  -5    3.30    7.70
   0   0   5    5.10    6.40
   0   0  -5   -1.20    5.80
   0   0  -5   14.40    7.40
  -1   0  -5 5680.83  395.06
  -1   0  -5 6003.00  395.46
  -2   0  -5   -5.10    8.50
  -2   0  -5   20.40    9.70
   2   0   5   -0.20    8.00
  -2   0  -5    6.40   16.50
   2   0   5    8.60    6.90
  -2   0  -5  -11.80    7.40
   2   0   5    2.70   15.60
   3   0   5   66.19   24.20
  -3   0  -5   81.49   16.30
  -3   0  -5   94.59   25.50
   3   0   5   95.19   17.20
   3   0   5   69.69   12.60
  -3   0  -5   90.89   14.00
  -4   0  -5   33.30   17.00
   4   0   5  -15.30   31.10
  -4   0  -5   -0.60    8.00
  -4   0  -5   27.40   30.90
   5  -1  -5  932.51   78.39
   5  -1  -5  792.92   75.39
   5  -1  -5  955.50   75.69
   5   1  -5  887.91   74.29
   5   1  -5  914.41   79.79
   5   1  -5  840.22   75.59
   4  -1  -5  399.16   47.30
   4  -1  -5  452.65   43.80
  -4  -1   5  504.55   43.20
  -4  -1   5  498.95   49.40
   4  -1  -5  428.46   46.50
  -4   1   5  475.95   42.00
   4   1  -5  398.76   41.90
   4   1  -5  446.36   44.40
  -3  -1   5  928.41   68.29
   3  -1  -5  921.01   66.39
   3  -1  -5  992.30   69.39
   3  -1  -5  969.20   64.09
   3  -1  -5  928.81   67.89
   3  -1  -5  886.91   69.29
  -3  -1   5  983.60   69.99
   3   1  -5  919.51   67.19
   3   1  -5  947.81   68.99
  -3   1   5  937.91   69.29
   3   1  -5  870.71   70.69
  -2  -1   5  404.96   32.50
   2  -1  -5  470.95   33.80
  -2  -1   5  355.56   30.50
   2  -1  -5  393.06   31.70
  -2  -1   5  438.36   37.90
  -2  -1   5  472.35   33.10
   2  -1  -5  422.96   29.30
   2  -1  -5  336.47   30.00
   2   1  -5  405.36   33.90
   2   1  -5  356.76   32.00
   2   1  -5  423.36   29.40
   2   1  -5  413.76   30.30
  -2   1   5  413.66   34.30
   2   1  -5  413.16   31.60
  -2   1   5  401.16   30.60
  -2   1   5  412.06   33.30
  -2   1   5  431.66   33.80
  -1  -1   5 1171.08   77.59
   1  -1  -5 1241.58   77.49
  -1  -1   5 1195.58   77.29
   1  -1  -5 1046.50   77.29
  -1  -1   5  989.30   77.39
   1   1  -5 1021.30   76.49
  -1   1   5 1264.07   77.29
  -1   1   5 1029.10   77.89
   0  -1  -5 3109.69  198.98
   0  -1  -5 2988.10  198.08
   0  -1   5 2924.31  198.28
   0  -1   5 2794.92  197.78
   0  -1   5 2899.41  197.08
   0  -1  -5 2950.70  197.88
   0   1  -5 2698.23  198.48
   0   1   5 2865.41  199.88
   0   1   5 3244.18  197.28
   0   1  -5 2868.01  198.08
   0   1   5 2711.73  199.08
   0   1   5 3162.88  197.48
   0   1  -5 2561.14  196.98
   0   1   5 3081.99  197.08
   0   1  -5 2905.71  197.68
  -1  -1  -5 6315.57  401.06
   1  -1   5 5336.67  400.66
  -1   1  -5 5537.55  400.66
   1   1   5 6574.44  403.06
   1   1   5 5876.61  400.96
  -1   1  -5 5980.40  401.76
   2  -1   5 1445.36   99.79
  -2  -1  -5 1477.55   93.39
  -2  -1  -5 1185.68   96.79
   2  -1   5 1209.58   91.49
  -2  -1  -5 1231.88   93.89
  -2  -1  -5 1142.79  113.19
  -2  -1  -5 1406.36   94.99
   2  -1   5 1283.87   93.99
  -2  -1  -5 1415.16   92.39
  -2   1  -5 1545.25   99.29
   2   1   5 1363.96   98.39
  -2   1  -5 1412.06   95.49
  -2   1  -5 1359.96   92.99
   2   1   5 1329.07   93.49
  -3  -1  -5 3596.24  240.38
   3  -1   5 3506.85  246.18
   3  -1   5 3700.23  239.68
   3  -1   5 3504.75  239.28
  -3  -1  -5 3277.17  248.18
   3  -1   5 3828.52  248.38
  -3  -1  -5 3203.48  241.38
  -3  -1  -5 3795.02  240.48
  -3   1  -5 3560.34  240.58
   3   1   5 3778.62  244.48
   3   1   5 3109.29  244.48
  -3   1  -5 3657.23  243.08
  -4  -1  -5  117.59   15.90
  -4  -1  -5  127.19   39.20
   4  -1   5  136.49   36.80
   4   1   5  155.28   34.90
  -4   1  -5  200.68   34.90
  -4   1  -5  114.19   20.20
   5  -2  -5   30.20   27.40
  -5  -2   5   80.39   35.50
   5  -2  -5    5.20   26.50
   5   2  -5  -10.20   23.50
  -5   2   5   14.10   19.50
   5   2  -5   39.70   25.10
   5   2  -5   -9.00   27.50
  -4  -2   5  353.06   45.10
   4  -2  -5  303.27   39.90
  -4  -2   5  326.17   35.70
   4  -2  -5  280.07   39.90
  -4   2   5  335.47   41.80
  -4   2   5  337.07   35.90
   4   2  -5  269.97   42.10
   4   2  -5  278.77   40.00
  -3  -2   5 1275.57   95.59
  -3  -2   5 1395.26   98.79
   3  -2  -5 1452.55   99.49
   3  -2  -5 1255.07   96.39
  -3  -2   5 1446.26   97.49
   3  -2  -5 1385.76   96.59
   3  -2  -5 1383.66   99.09
  -3  -2   5 1495.65  101.39
   3   2  -5 1565.24   97.09
   3   2  -5 1387.26  100.29
   3   2  -5 1397.66  111.19
  -3   2   5 1407.86   99.69
  -3   2   5 1430.96   95.89
   3   2  -5 1225.18   98.29
  -2  -2   5 6039.40  377.96
   2  -2  -5 5240.88  374.96
   2  -2  -5 5407.86  374.76
  -2  -2   5 6081.19  377.16
  -2  -2   5 5224.78  376.86
   2   2  -5 5492.45  375.66
  -2   2   5 5185.88  377.76
  -2   2   5 5890.11  375.86
  -1  -2   5 4710.93  291.37
   1  -2  -5 4150.48  289.57
  -1  -2   5 4487.15  289.07
  -1  -2   5 4635.14  288.87
   1  -2  -5 4447.25  288.77
   1  -2  -5 3854.21  288.47
  -1   2   5 4490.25  288.77
   1   2  -5 4116.09  288.67
  -1   2   5 3836.12  290.57
   1   2  -5 4449.15  288.97
   1   2  -5 4628.04  288.77
  -1   2   5 3706.13  288.07
  -1   2   5 4033.00  290.67
   0  -2   5 5840.62  375.06
   0  -2  -5 5855.81  375.06
   0   2  -5 4969.10  374.76
  -1  -2  -5  398.36   45.40
   1  -2   5  501.05   36.50
   1  -2   5  492.85   39.10
   1  -2   5  477.05   37.60
  -1  -2  -5  495.05   37.70
  -1  -2  -5  499.65   36.20
   1   2   5  498.15   38.10
   1   2   5  504.95   36.40
  -1   2  -5  508.45   33.60
  -1   2  -5  489.15   39.50
  -1   2  -5  495.25   36.50
   1   2   5  478.65   38.80
   2  -2   5   33.80    9.30
   2  -2   5   71.29   22.20
  -2  -2  -5   52.79   16.20
  -2  -2  -5   30.50   25.30
  -2  -2  -5   43.60    8.20
   2  -2   5   35.30   20.40
  -2   2  -5   34.60    8.60
   2   2   5   33.40    8.70
  -2   2  -5   52.99   16.40
   2   2   5   32.70   20.40
   3  -2   5   99.59   28.70
   3  -2   5   66.69   12.80
  -3  -2  -5   86.09   14.70
   3  -2   5   73.79   30.90
  -3  -2  -5   91.29   23.00
  -3  -2  -5   82.99   14.70
   3   2   5  121.19   25.60
  -3   2  -5   78.89   22.30
   3   2   5   77.79   25.80
  -3   2  -5   71.89   12.00
   3   2   5   75.59   10.70
  -4  -2  -5   65.79   11.10
  -4  -2  -5   26.60   39.90
   4  -2   5  141.29   40.10
   4  -2   5   32.60   37.20
   4   2   5   36.20   29.80
  -4   2  -5   49.60   26.80
  -4  -3   5  659.43   54.29
   4  -3  -5  642.94   51.09
   4  -3  -5  656.43   60.29
  -4  -3   5  640.94   76.59
  -4   3   5  675.93   54.49
   4   3  -5  534.75   57.99
   4   3  -5  639.94   59.09
  -3  -3   5   81.49   24.10
   3  -3  -5  117.39   28.40
  -3  -3   5   70.39   12.90
   3  -3  -5   49.20   12.50
   3  -3  -5   76.79   14.30
   3   3  -5   72.59   20.90
  -3   3   5   69.99   14.40
   3   3  -5   68.19   12.90
   3   3  -5   38.30   23.70
   2  -3  -5  338.47   25.10
   2  -3  -5  340.97   27.00
  -2  -3   5  307.97   26.10
  -2  -3   5  267.87   35.80
   2  -3  -5  328.87   33.90
  -2  -3   5  374.26   30.70
   2   3  -5  287.37   26.90
  -2   3   5  323.87   26.50
  -2   3   5  338.57   32.00
   2   3  -5  297.37   32.30
   1  -3  -5  117.19   15.40
  -1  -3   5  107.69   24.70
  -1  -3   5  118.79   15.00
   1  -3  -5  152.28   14.40
   1  -3  -5   93.09   19.20
  -1   3   5  115.59   14.90
  -1   3   5   86.49   20.20
  -1   3   5  128.29   17.80
   1   3  -5  127.89   14.50
   1   3  -5  147.89   21.00
   1   3  -5  120.39   19.00
   1   3  -5  114.29   15.30
   0  -3   5 2726.63  175.48
   0  -3  -5 2536.55  172.68
   0  -3  -5 2761.32  176.38
   0  -3  -5 2493.15  171.88
   0  -3   5 2713.13  174.48
   0   3  -5 2349.86  173.08
   0   3  -5 2491.95  172.28
   0   3   5 2627.84  173.38
   0   3  -5 2132.29  174.98
   0   3  -5 2459.95  173.88
   0   3   5 2578.54  173.18
   0   3   5 2593.64  174.98
  -1  -3  -5  366.26   32.80
  -1  -3  -5  370.36   34.90
  -1  -3  -5  299.07   43.80
   1  -3   5  354.06   30.30
   1  -3   5  374.26   37.30
   1  -3   5  402.06   34.60
  -1   3  -5  326.77   26.80
  -1   3  -5  338.77   30.10
  -1   3  -5  381.36   26.20
  -1   3  -5  407.76   34.50
   1   3   5  386.26   30.00
   1   3   5  386.96   35.00
  -2  -3  -5 3964.80  275.47
   2  -3   5 4423.46  279.17
   2  -3   5 4077.39  276.17
  -2  -3  -5 4034.40  277.27
  -2  -3  -5 4188.18  285.27
   2  -3   5 3737.53  278.97
   2   3   5 4312.57  276.27
  -2   3  -5 3887.11  275.67
   2   3   5 4014.80  276.77
  -2   3  -5 3971.90  278.07
  -3  -3  -5  -21.40   36.50
   3  -3   5   40.30   33.30
   3  -3   5   41.20   29.60
  -3  -3  -5   24.10   10.40
  -3  -3  -5   39.30   24.40
   3   3   5   50.19   20.30
   3   3   5   24.50   10.40
  -3   3  -5   12.40   23.10
  -4  -3  -5  454.85   38.80
  -4  -3  -5  532.95   56.49
   4  -3   5  580.24   71.49
   4   3   5  412.96   60.49
   4   3   5  578.34   51.39
  -4   3  -5  419.96   60.89
   4  -4  -5  388.36   49.80
  -4  -4   5  285.67   57.79
  -4  -4   5  272.57   42.00
  -4  -4   5  334.47   31.50
   4  -4  -5  269.67   32.00
  -4   4   5  342.77   46.20
   4   4  -5  294.77   39.70
   4   4  -5  259.27   45.70
  -4   4   5  282.67   39.20
   3  -4  -5  479.75   48.90
   3  -4  -5  452.25   36.30
  -3  -4   5  398.36   35.50
  -3  -4   5  325.67   52.49
  -3  -4   5  537.15   46.30
   3   4  -5  384.06   35.20
   3   4  -5  429.66   41.30
  -3   4   5  442.36   46.50
   3   4  -5  450.35   46.00
  -3   4   5  545.25   54.89
   2  -4  -5 2064.59  136.59
  -2  -4   5 1951.50  139.19
   2  -4  -5 1909.11  132.19
  -2  -4   5 2023.60  139.29
   2  -4  -5 1795.22  136.99
  -2  -4   5 1858.01  133.19
   2   4  -5 2059.69  133.59
  -2   4   5 1982.40  135.99
  -2   4   5 1908.01  134.79
  -2   4   5 1854.81  140.39
  -2   4   5 1887.31  133.39
   2   4  -5 1957.80  135.29
   2   4  -5 1875.31  134.19
  -1  -4   5  567.64   53.49
  -1  -4   5  493.75   59.09
  -1  -4   5  628.74   46.90
   1  -4  -5  669.23   45.90
   1  -4  -5  553.04   52.89
   1  -4  -5  656.63   46.90
  -1   4   5  644.34   46.90
   1   4  -5  610.14   46.20
   1   4  -5  661.53   46.60
  -1   4   5  586.14   45.90
   1   4  -5  634.34   48.10
   1   4  -5  604.24   48.00
  -1   4   5  607.14   55.79
  -1   4   5  645.94   51.69
   0  -4  -5 2837.92  206.58
   0  -4   5 3248.38  209.58
   0  -4   5 2648.24  206.48
   0  -4   5 3343.97  210.28
   0  -4  -5 3091.99  206.48
   0  -4  -5 2997.20  204.98
   0   4   5 3077.69  208.88
   0   4  -5 3080.99  207.38
   0   4  -5 3013.20  205.78
   0   4  -5 2936.91  206.78
   0   4   5 2959.10  206.68
   0   4   5 3104.89  205.38
   1  -4   5  568.04   46.00
  -1  -4  -5  575.14   45.40
  -1  -4  -5  550.54   48.70
   1  -4   5  638.04   51.89
   1  -4   5  640.54   53.99
   1   4   5  547.55   51.79
  -1   4  -5  624.64   42.20
   1   4   5  597.74   45.80
  -1   4  -5  586.34   44.60
  -1   4  -5  622.14   50.49
  -1   4  -5  594.94   46.00
  -2  -4  -5  205.78   22.80
   2  -4   5  210.08   38.00
  -2  -4  -5  171.28   33.10
   2  -4   5  218.48   24.40
  -2  -4  -5  139.59   41.90
  -2   4  -5  161.38   36.00
  -2   4  -5  195.48   23.80
   2   4   5  215.18   35.60
   2   4   5  199.88   23.70
  -3  -4  -5  -60.99   43.50
   3  -4   5    9.40   35.00
   3  -4   5   46.10   31.70
  -3  -4  -5   27.80   12.00
  -3  -4  -5   32.90   27.80
  -3   4  -5  -20.50   25.40
   3   4   5   35.20   13.10
   4  -4   5   70.09   49.30
  -4  -4  -5  115.29   51.89
  -4  -4  -5  -46.50   58.39
  -4   4  -5   54.59   38.30
   4   4   5  -49.40   68.99
   4  -5  -5   85.69   23.10
  -4   5   5   57.29   28.40
   4   5  -5   76.19   28.40
  -3  -5   5  290.17   30.10
  -3  -5   5  252.67   44.50
   3  -5  -5  376.06   50.69
   3  -5  -5  321.17   31.80
  -3  -5   5  272.67   48.40
   3   5  -5  288.07   44.00
  -3   5   5  292.07   43.20
   3   5  -5  322.97   33.80
  -2  -5   5    1.10   29.60
   2  -5  -5   28.90   15.70
  -2  -5   5   12.00   11.90
  -2   5   5   -7.20   11.00
  -2   5   5  -27.40   28.30
  -2   5   5   30.00   18.40
   2   5  -5    4.80   12.10
   2   5  -5   24.00   20.80
  -1  -5   5  186.18   24.80
  -1  -5   5  254.47   53.39
   1  -5  -5  165.98   39.10
  -1  -5   5  182.08   39.60
   1  -5  -5  217.58   25.80
   1  -5  -5  196.98   24.60
  -1   5   5  164.08   22.70
   1   5  -5  181.38   24.20
   1   5  -5  199.88   28.20
  -1   5   5  188.28   26.90
   1   5  -5  235.58   28.00
  -1   5   5  164.08   32.20
   0  -5   5  120.69   30.40
   0  -5  -5  146.19   22.50
   0  -5  -5  149.29   26.10
   0  -5   5  150.68   24.80
   0  -5   5  163.58   36.80
   0  -5  -5  204.88   42.40
   0   5   5  126.19   27.10
   0   5  -5  164.68   27.70
   0   5   5  129.19   20.80
   0   5   5  130.49   20.50
   0   5  -5  183.38   28.50
   0   5  -5  125.29   22.60
   1  -5   5 1034.70   81.39
  -1  -5  -5  975.60   75.09
   1  -5   5  910.11   72.49
   1  -5   5 1128.79   81.69
  -1  -5  -5 1094.19   89.39
   1   5   5  881.91   78.29
  -1   5  -5  963.60   76.09
  -1   5  -5  937.11   72.49
  -2  -5  -5  269.47   56.09
   2  -5   5  497.25   85.19
  -2  -5  -5  354.66   47.30
  -2  -5  -5  338.47   33.00
   2   5   5  343.27   34.50
  -2   5  -5  344.37   33.90
  -2   5  -5  311.97   46.40
   2   5   5  373.36   47.30
  -3  -5  -5  564.94   66.19
   3  -5   5  781.72   76.49
   3  -5   5  747.63   77.49
   3   5   5  656.33   66.49
  -3  -6   5  564.94   78.39
  -3  -6   5  633.94   84.39
   3  -6  -5  683.83   93.89
   3  -6  -5  721.53   55.99
   3   6  -5  767.72   73.29
  -3   6   5  616.24   64.39
   2  -6  -5    8.20   30.30
  -2  -6   5  -36.10   33.70
   2  -6  -5   36.30   17.40
   2   6  -5   24.40   16.50
  -2   6   5   -1.30   19.40
   2   6  -5   13.60   22.10
  -2   6   5  -39.00   35.40
   1  -6  -5 1643.94  116.09
  -1  -6   5 1650.83  122.19
   1  -6  -5 1821.62  124.89
   1  -6  -5 1510.35  115.99
  -1   6   5 1416.06  116.59
  -1   6   5 1552.64  115.39
   1   6  -5 1687.83  116.49
   1   6  -5 1681.03  116.59
   1   6  -5 1707.23  117.29
  -1   6   5 1676.73  126.39
   0  -6   5   61.49   28.90
   0  -6   5   84.49   35.20
   0  -6   5   60.19   16.90
   0  -6  -5   63.49   20.50
   0  -6  -5   68.19   18.10
   0   6  -5   65.59   19.20
   0   6   5   27.20   14.60
   0   6  -5   65.79   21.50
   0   6   5   46.20   14.00
  -1  -6  -5  389.06   36.70
   1  -6   5  379.46   36.90
  -1  -6  -5  370.26   42.70
   1   6   5  386.76   51.79
  -1   6  -5  304.97   45.60
   1   6   5  331.97   36.70
  -1   6  -5  372.36   46.30
   2  -6   5   84.19   35.00
   2  -6   5   48.50   36.30
  -2  -6  -5  -10.00   25.20
   2   6   5   32.90   28.70
  -1  -7   5  106.29   47.30
   1  -7  -5   63.79   22.80
  -1  -7   5   44.00   36.90
   1  -7  -5   93.09   38.00
   1   7  -5   23.20   20.70
  -1   7   5   63.39   34.90
  -1   7   5   28.20   20.80
   1   7  -5   59.69   23.80
   0  -7   5  127.19   44.40
   0  -7  -5   69.59   24.70
   0  -7  -5   89.29   37.80
   0  -7  -5   36.80   26.00
   0  -7   5   70.69   35.70
   0   7  -5   46.90   24.50
   0   7   5   59.49   30.70
   0   7   5   28.60   15.80
   1  -7   5  529.75   63.19
   1  -7   5  584.94   72.19
  -1  -7  -5  462.25   54.19
   1   7   5  576.84   61.09
  -1   7  -5  402.96   55.29
   5   0  -6   56.79   30.80
   5   0  -6   -1.40   25.10
   5   0  -6   10.70   35.40
   4   0  -6   21.50   16.70
   4   0  -6   19.10   21.00
  -4   0   6   46.00   18.20
   4   0  -6   -5.40   24.60
   3   0  -6    5.10    3.90
  -3   0   6   32.40   13.10
   3   0  -6    2.70    4.40
   3   0  -6  -10.50   14.60
  -3   0   6   23.50   13.70
   3   0  -6   22.50   15.70
   3   0  -6    7.90    9.10
   3   0  -6   13.50   10.60
   2   0  -6 7185.08  503.35
   2   0  -6 7254.07  502.55
   2   0  -6 7914.31  502.75
   1   0  -6   -2.80    7.20
  -1   0   6    3.40    9.40
   1   0  -6    1.40    8.30
   1   0  -6    7.30    5.20
  -1   0   6    6.90    5.10
   1   0  -6    0.60    8.90
   0   0  -6 7407.26  500.45
  -1   0  -6   -9.90    9.70
  -1   0  -6   -0.40   11.10
   1   0   6   -9.40   10.90
  -1   0  -6   -1.10    8.60
  -1   0  -6    4.10   14.60
  -1   0  -6   -1.10    8.20
   1   0   6   -0.90   10.60
  -2   0  -6 4452.65  301.37
  -2   0  -6 4302.47  306.27
   2   0   6 4362.26  302.67
   2   0   6 4556.34  299.47
  -2   0  -6 4306.27  301.17
  -2   0  -6 4604.74  300.87
  -3   0  -6   -3.00   10.50
   3   0   6    5.60   11.40
  -3   0  -6   25.90   14.40
  -3   0  -6   -7.70   26.50
   3   0   6  -22.40   23.80
  -3   0  -6   -0.90   13.60
  -4   0  -6   71.49   38.20
  -4   0  -6   69.79   12.50
  -4   0  -6   76.69   19.70
   4   0   6   59.09   34.90
   5  -1  -6  162.58   40.60
   5  -1  -6   60.99   27.60
   5   1  -6  117.49   25.40
   5   1  -6   39.60   35.10
   5   1  -6  192.28   40.50
   5   1  -6   70.69   29.10
  -4  -1   6 2285.97  160.78
   4  -1  -6 2356.16  160.78
   4  -1  -6 2089.79  161.18
  -4  -1   6 2266.97  162.98
   4  -1  -6 2407.16  164.88
  -4   1   6 2291.67  160.78
   4   1  -6 2283.37  162.98
   4   1  -6 2336.17  161.48
   4   1  -6 2412.46  159.88
   3  -1  -6  649.34   46.50
   3  -1  -6  633.34   50.59
   3  -1  -6  584.94   47.90
   3  -1  -6  695.93   50.69
  -3  -1   6  741.83   53.19
   3  -1  -6  655.73   47.80
  -3  -1   6  684.13   51.59
   3  -1  -6  702.23   52.39
   3   1  -6  617.14   52.89
   3   1  -6  674.83   46.10
  -3   1   6  698.63   52.79
   3   1  -6  619.84   46.40
   3   1  -6  699.13   49.10
   3   1  -6  676.73   53.09
  -2  -1   6 3050.79  203.48
   2  -1  -6 2658.53  200.98
   2  -1  -6 2918.81  202.48
   2  -1  -6 2947.71  200.88
  -2  -1   6 3198.38  203.28
  -2  -1   6 2897.41  202.88
   2  -1  -6 3216.58  203.58
   2   1  -6 2968.60  203.78
  -2   1   6 2956.80  204.38
   2   1  -6 2589.64  201.88
   2   1  -6 3235.38  202.08
   2   1  -6 3078.99  201.18
  -2   1   6 3013.80  202.58
   2   1  -6 3041.80  202.68
  -1  -1   6 1305.27  100.29
   1  -1  -6 1617.44  100.49
  -1  -1   6 1609.74  100.69
   1  -1  -6 1389.96  100.09
  -1  -1   6 1534.65  100.39
   1  -1  -6 1465.15  100.39
  -1   1   6 1559.94  100.39
  -1   1   6 1315.97  101.79
   1   1  -6 1439.16   99.79
  -1   1   6 1251.27  100.79
   1   1  -6 1412.36   99.09
  -1   1   6 1556.54  100.19
   0  -1   6   54.59    8.70
   0  -1   6   53.59   12.50
   0  -1   6   55.79   10.50
   0  -1  -6   36.80   10.70
   0  -1  -6   46.50    8.90
   0  -1   6   50.99   11.40
   0   1  -6   67.29   11.20
   0   1  -6   28.40   12.50
   0   1   6   40.50    8.60
   0   1  -6   31.90    7.80
   0   1   6   46.20    8.70
   0   1   6   53.99   10.80
  -1  -1  -6 1374.06   85.19
   1  -1   6 1109.79   84.69
   1  -1   6 1190.08   84.49
  -1  -1  -6 1118.49   84.49
   1  -1   6 1294.27   85.99
   1  -1   6 1143.49   82.99
  -1  -1  -6 1247.18   88.99
  -1  -1  -6 1070.69   84.19
   1   1   6 1260.17   84.69
  -1   1  -6 1225.88   85.79
  -1   1  -6 1145.39   83.59
   1   1   6 1318.87   86.99
   1   1   6 1129.79   85.09
   1   1   6 1174.18   84.29
  -1   1  -6 1324.97   86.99
  -1   1  -6 1337.87   85.19
  -1   1  -6 1096.79   85.49
  -2  -1  -6 2208.78  142.39
  -2  -1  -6 2186.38  143.69
  -2  -1  -6 1915.11  147.99
  -2  -1  -6 2134.49  141.09
   2  -1   6 2096.39  145.69
   2  -1   6 2007.70  146.89
   2  -1   6 1852.41  142.59
  -2   1  -6 2247.38  147.29
  -2   1  -6 2074.49  143.79
  -2   1  -6 1917.61  139.79
   2   1   6 2153.78  143.99
  -2   1  -6 2076.69  141.89
   2   1   6 1998.20  141.89
   3  -1   6  804.72   56.39
  -3  -1  -6  804.42   58.49
  -3  -1  -6  718.33   72.99
  -3  -1  -6  869.01   58.39
   3  -1   6  707.33   75.79
   3  -1   6  764.52   56.59
   3  -1   6  853.31   70.39
  -3  -1  -6  763.42   59.99
  -3   1  -6  821.22   64.19
   3   1   6  837.12   60.09
  -3   1  -6  794.62   58.09
  -3   1  -6  848.92   59.89
   3   1   6  848.62   67.39
   4  -1   6 1308.87   91.09
   4  -1   6 1411.16  107.49
  -4  -1  -6 1338.07   92.29
  -4  -1  -6 1199.68  111.39
   4  -1   6 1173.58  112.89
  -4  -1  -6 1494.25   97.29
  -4   1  -6 1359.66  100.19
   4   1   6 1342.77  103.19
  -4   1  -6 1181.08   93.99
   4   1   6 1394.76   95.59
  -5  -2   6   69.29   33.30
   5  -2  -6   34.10   28.50
   5  -2  -6    2.10   22.30
  -5   2   6    3.80   21.70
   5   2  -6    0.80   21.70
   5   2  -6   57.29   26.00
   5   2  -6  -10.60   29.80
  -4  -2   6   24.70   25.50
   4  -2  -6   -9.90   23.70
   4  -2  -6   24.20   20.50
   4  -2  -6    8.50   15.10
  -4   2   6   40.30   22.80
  -4   2   6   20.70   17.50
   4   2  -6   23.50   21.20
   3  -2  -6  397.96   30.90
  -3  -2   6  342.47   31.40
   3  -2  -6  423.26   38.20
  -3  -2   6  465.45   33.60
  -3  -2   6  453.05   37.30
  -3  -2   6  469.15   42.10
   3  -2  -6  377.56   31.30
   3  -2  -6  394.96   31.60
   3  -2  -6  448.86   40.10
   3   2  -6  337.77   40.10
   3   2  -6  401.26   32.00
  -3   2   6  456.95   40.10
   3   2  -6  337.37   41.00
  -3   2   6  409.76   31.70
  -3   2   6  426.26   37.90
  -2  -2   6 1055.29   74.69
  -2  -2   6 1090.19   71.69
   2  -2  -6 1011.20   74.79
  -2  -2   6 1036.40   72.79
   2  -2  -6  958.20   70.69
  -2  -2   6 1067.79   76.19
   2  -2  -6 1115.69   75.09
  -2   2   6 1070.79   74.99
   2   2  -6  897.21   71.59
   2   2  -6 1083.29   72.49
  -2   2   6 1106.59   72.89
  -1  -2   6 6506.05  416.76
   1  -2  -6 6284.57  416.66
   1   2  -6 6692.53  416.56
  -1   2   6 6273.17  416.66
   1   2  -6 5480.85  417.66
   1   2  -6 6498.15  416.76
  -1   2   6 5473.65  418.46
   0  -2  -6 4280.07  308.67
   0  -2   6 4293.37  307.67
   0  -2  -6 4712.93  307.07
   0  -2   6 4207.28  306.87
   0   2   6 4602.04  310.67
   0   2   6 4568.14  307.77
   0   2  -6 4653.23  307.97
   0   2  -6 4519.15  308.77
   0   2   6 5097.89  307.37
   1  -2   6 5910.61  413.26
   1  -2   6 6101.99  414.76
   1  -2   6 5715.53  413.46
  -1  -2  -6 6401.66  413.36
  -1  -2  -6 6409.76  412.66
  -1   2  -6 5915.51  413.26
   1   2   6 6354.66  413.36
  -2  -2  -6  946.11   64.09
   2  -2   6  878.41   64.69
  -2  -2  -6  863.21   75.69
  -2  -2  -6  832.42   61.09
   2  -2   6  932.41   72.29
  -2  -2  -6  881.81   66.49
  -2   2  -6  889.11   64.09
  -2   2  -6  881.51   69.29
   2   2   6  869.21   65.99
   2   2   6  999.20   67.59
   2   2   6  832.42   64.39
   2   2   6  934.11   61.59
  -3  -2  -6   37.10   10.40
   3  -2   6   73.79   31.30
  -3  -2  -6   33.50   21.60
   3  -2   6   -8.60   29.20
  -3  -2  -6   55.79   14.10
  -3  -2  -6  -19.90   33.80
  -3   2  -6   35.40   23.50
   3   2   6   23.80   23.50
  -3   2  -6   36.00   11.00
   3   2   6   47.80   17.70
  -4  -2  -6   -9.50   10.00
   4  -2   6  -48.20   39.60
   4  -2   6   51.69   39.20
  -4   2  -6  -19.20   25.50
   4   2   6  -32.40   31.10
   4  -3  -6  -19.20   24.50
   4  -3  -6   59.29   24.90
  -4  -3   6   15.20   16.90
  -4  -3   6   30.00   47.90
   4  -3  -6   28.90   14.10
   4   3  -6   50.89   23.70
  -4   3   6   54.59   23.40
  -4   3   6   48.10   19.90
   4   3  -6   -2.90   22.90
  -3  -3   6 1925.81  128.39
   3  -3  -6 1923.21  132.29
  -3  -3   6 1981.10  129.59
   3  -3  -6 1639.74  127.09
   3  -3  -6 2045.10  132.79
  -3  -3   6 1942.71  135.49
  -3   3   6 1911.71  128.79
  -3   3   6 1949.70  133.69
   3   3  -6 1601.34  128.59
  -3   3   6 1910.11  132.09
   3   3  -6 1948.31  132.79
   3   3  -6 1585.54  132.89
   3   3  -6 1934.71  128.19
  -2  -3   6   58.39   21.40
  -2  -3   6   96.59   14.50
   2  -3  -6  117.39   26.20
   2  -3  -6  113.99   15.50
  -2   3   6   98.79   15.20
  -2   3   6  135.49   22.00
   2   3  -6   87.59   18.20
   2   3  -6  101.99   15.50
   2   3  -6   65.89   19.00
  -2   3   6   28.50   33.10
   2   3  -6   88.59   14.80
   1  -3  -6  686.13   46.30
   1  -3  -6  719.03   48.30
  -1  -3   6  574.74   53.39
  -1  -3   6  626.54   47.70
  -1  -3   6  689.03   49.20
   1  -3  -6  666.53   47.90
   1  -3  -6  592.14   52.39
  -1   3   6  680.53   48.20
   1   3  -6  655.33   48.00
   1   3  -6  656.83   46.20
  -1   3   6  648.04   48.60
   1   3  -6  654.23   49.30
   1   3  -6  629.04   51.09
   0  -3  -6   23.80   10.40
   0  -3  -6   14.20   18.70
   0  -3  -6   27.90    8.00
   0  -3   6   33.80   19.20
   0  -3   6   25.00   13.10
   0   3  -6   21.00    9.20
   0   3  -6   36.70    9.10
   0   3  -6   37.20   13.90
   0   3  -6   33.10    8.00
   0   3   6   35.10    9.80
   0   3   6   18.90   20.30
   0   3  -6   27.60   14.20
   1  -3   6 1611.64  109.69
  -1  -3  -6 1506.35  115.49
  -1  -3  -6 1568.64  108.49
  -1  -3  -6 1528.15  107.79
   1  -3   6 1552.04  108.09
   1  -3   6 1492.15  111.89
  -1   3  -6 1491.85  105.29
   1   3   6 1690.03  108.29
   1   3   6 1612.64  110.29
  -1   3  -6 1628.54  109.99
  -1   3  -6 1480.45  105.39
  -1   3  -6 1472.25  107.89
  -2  -3  -6  177.08   46.80
  -2  -3  -6  220.48   23.10
  -2  -3  -6  243.28   32.50
   2  -3   6  266.17   38.20
   2  -3   6  195.68   41.30
   2  -3   6  232.08   24.90
   2   3   6  232.18   23.70
  -2   3  -6  207.68   36.20
  -2   3  -6  193.08   23.80
   2   3   6  271.57   32.80
  -3  -3  -6 1610.64  110.59
  -3  -3  -6 1628.74  126.99
  -3  -3  -6 1658.03  147.19
   3   3   6 1578.44  114.29
  -3   3  -6 1555.44  121.19
   3   3   6 1496.65  111.39
  -4  -3  -6   37.30   31.20
   4  -3   6   58.59   46.20
   4  -3   6   13.90   45.20
   4   3   6  -46.90   33.50
   4   3   6   59.49   25.30
  -4   3  -6  -33.20   30.10
  -4  -4   6   -8.00   33.10
   4  -4  -6   21.20   13.90
  -4  -4   6    4.70   19.60
  -4  -4   6   35.60   14.40
   4  -4  -6   65.49   29.50
  -4   4   6   28.80   24.60
  -4   4   6   12.20   21.90
   4   4  -6    0.70   26.60
   4   4  -6   30.80   21.90
  -3  -4   6  585.24   66.99
  -3  -4   6  680.93   51.69
  -3  -4   6  755.42   56.59
   3  -4  -6  717.53   50.59
   3  -4  -6  739.43   66.49
  -3   4   6  773.22   58.99
  -3   4   6  622.14   63.09
   3   4  -6  710.13   59.69
   3   4  -6  648.74   58.79
   3   4  -6  669.03   51.69
   2  -4  -6  642.64   60.39
   2  -4  -6  757.72   54.49
  -2  -4   6  706.63   53.69
  -2  -4   6  720.63   63.49
   2  -4  -6  728.83   52.29
  -2  -4   6  769.82   59.89
   2   4  -6  755.22   53.89
   2   4  -6  743.73   58.09
  -2   4   6  773.52   55.99
  -2   4   6  760.72   66.39
  -2   4   6  743.83   56.99
   2   4  -6  671.23   53.29
  -2   4   6  685.43   53.79
   2   4  -6  725.83   58.19
  -1  -4   6 3204.38  236.48
   1  -4  -6 3374.86  233.48
  -1  -4   6 3199.48  230.48
   1  -4  -6 3287.07  230.68
  -1  -4   6 3430.66  234.48
   1  -4  -6 3564.54  229.48
   1   4  -6 3144.79  231.18
  -1   4   6 3506.15  235.28
  -1   4   6 3103.19  230.38
  -1   4   6 3812.62  233.18
   1   4  -6 3514.15  230.78
   1   4  -6 3379.06  230.68
   1   4  -6 3457.55  229.68
   0  -4   6  782.12   60.69
   0  -4  -6  682.93   50.29
   0  -4   6  647.74   52.69
   0  -4  -6  716.63   52.79
   0  -4  -6  654.43   50.69
   0  -4   6  757.22   59.69
   0  -4  -6  724.13   53.09
   0   4  -6  734.83   55.89
   0   4  -6  684.33   51.69
   0   4   6  712.93   52.89
   0   4   6  686.73   59.49
   0   4  -6  695.03   52.99
   1  -4   6 1694.53  124.19
   1  -4   6 1823.72  128.79
   1  -4   6 1852.31  127.69
  -1  -4  -6 1664.73  134.09
  -1  -4  -6 1731.63  123.99
  -1  -4  -6 1702.83  124.99
  -1   4  -6 1877.31  127.29
   1   4   6 1792.42  124.39
  -1   4  -6 1713.73  124.19
   1   4   6 1815.32  127.39
  -1   4  -6 1926.91  123.59
  -1   4  -6 1793.62  121.09
  -2  -4  -6  341.87   29.80
   2  -4   6  336.07   31.60
  -2  -4  -6  288.57   38.60
   2  -4   6  280.57   50.29
  -2  -4  -6  324.37   50.79
  -2   4  -6  238.48   35.30
  -2   4  -6  277.87   43.80
   2   4   6  344.97   41.10
   2   4   6  337.87   31.10
   3  -4   6  146.89   38.10
  -3  -4  -6   84.19   14.90
   3  -4   6   52.49   39.00
  -3  -4  -6   85.19   29.40
  -3  -4  -6   24.00   48.60
   3   4   6  120.59   21.90
  -3   4  -6   39.10   31.70
   4  -4   6  -14.30   91.79
  -4  -4  -6   32.30   34.50
   4  -4   6   33.60   43.40
   3  -5  -6  287.67   47.90
  -3  -5   6  211.58   41.00
  -3  -5   6  159.08   42.70
   3  -5  -6  259.17   38.10
   3   5  -6  189.88   41.80
  -3   5   6  212.08   38.80
   3   5  -6  182.18   33.40
  -2  -5   6  631.74   49.70
  -2  -5   6  598.24   70.59
   2  -5  -6  674.23   49.10
   2  -5  -6  519.05   60.99
   2   5  -6  685.93   56.09
  -2   5   6  599.24   50.49
  -2   5   6  769.52   70.99
  -2   5   6  641.14   54.19
   2   5  -6  621.84   49.70
   2   5  -6  654.83   53.29
  -1  -5   6   29.60   10.80
   1  -5  -6   21.10   12.80
   1  -5  -6   24.50   24.30
  -1  -5   6  121.59   59.29
  -1  -5   6   -4.80   28.00
  -1   5   6   22.50   13.40
  -1   5   6  -11.40   25.50
  -1   5   6   26.00   14.20
   1   5  -6   44.00   17.20
   1   5  -6   23.10   13.60
   1   5  -6   52.79   17.70
   0  -5  -6    8.20    9.40
   0  -5   6  -10.60   26.00
   0  -5   6   13.80   16.80
   0  -5  -6   26.00   26.60
   0  -5   6   -3.00   25.80
   0  -5  -6    4.50   15.90
   0  -5  -6    9.80   13.30
   0   5  -6    5.80   13.90
   0   5  -6   18.00   17.60
   0   5  -6   11.40   15.50
   0   5   6  -25.40   23.40
   1  -5   6  209.58   27.30
  -1  -5  -6  183.28   32.30
  -1  -5  -6  221.88   41.70
   1  -5   6  279.07   45.90
  -1   5  -6  210.88   37.50
   1   5   6  187.48   27.20
   1   5   6  206.18   40.10
  -1   5  -6  197.58   26.60
   2  -5   6  582.44   63.09
  -2  -5  -6  479.55   51.39
  -2  -5  -6  476.05   43.10
   2  -5   6  615.74   63.29
   2   5   6  490.95   44.60
  -2   5  -6  451.95   56.59
   2   5   6  520.85   55.79
  -3  -5  -6   93.69   30.70
   3  -5   6  132.39   42.70
  -3  -5  -6   56.89   59.99
  -3   5  -6   59.89   32.90
  -3  -6   6   -4.70   32.50
   3  -6  -6  109.99   58.19
   3   6  -6   52.39   19.30
  -3   6   6   48.80   26.40
  -2  -6   6  690.33   76.79
   2  -6  -6  731.93   57.39
   2  -6  -6  656.93   69.99
  -2  -6   6  732.73   83.99
   2   6  -6  765.62   64.29
  -2   6   6  897.91   84.99
  -2   6   6  668.33   62.19
   2   6  -6  747.33   60.79
   1  -6  -6   18.00   31.10
  -1  -6   6   19.60   37.60
  -1  -6   6  -32.80   28.50
   1  -6  -6   23.40   17.70
   1  -6  -6   -4.00   12.30
  -1  -6   6   26.20   14.70
   1   6  -6   -3.30   16.20
  -1   6   6  -12.10   37.40
  -1   6   6  -18.00   15.20
  -1   6   6    2.80   16.50
   1   6  -6   13.10   18.60
   1   6  -6   27.20   19.30
   0  -6   6 1789.92  128.69
   0  -6  -6 1581.14  117.69
   0  -6  -6 1599.14  121.09
   0  -6   6 1543.95  120.79
   0  -6  -6 1798.82  124.49
   0   6  -6 1975.00  121.49
   0   6  -6 1634.14  121.19
   0   6  -6 1857.71  124.09
   0   6   6 1573.44  120.89
   0   6   6 1721.73  128.09
  -1  -6  -6   52.89   24.60
  -1  -6  -6   40.40   39.00
  -1  -6  -6   22.50   13.80
   1  -6   6   54.19   45.90
   1  -6   6   36.00   13.80
   1   6   6   20.60   18.10
  -1   6  -6   -2.90   14.40
   1   6   6   31.40   28.10
   2  -6   6  515.95   65.49
  -2  -6  -6  409.76   49.90
  -2  -6  -6  365.36   65.79
  -2   6  -6  315.17   54.89
   2   6   6  431.66   57.19
   1  -7  -6  157.28   34.30
   1   7  -6  110.79   25.40
  -1   7   6  108.19   23.70
  -1   7   6  110.99   36.80
   1   7  -6  164.28   38.60
   0  -7   6   46.80   41.50
   0  -7  -6   10.90   22.50
   0  -7  -6   53.49   38.40
   0  -7   6   11.10   36.70
   0   7   6   13.10   30.30
   1  -7   6   34.70   48.90
  -1  -7  -6   21.40   26.50
   1  -7   6   71.99   40.00
   1   7   6   37.50   52.19
   5   0  -7  564.74   58.59
  -5   0   7  554.84   55.09
   5   0  -7  516.15   52.09
   5   0  -7  494.85   57.79
   4   0  -7    4.30   15.70
   4   0  -7    9.60   21.10
  -4   0   7   40.90   19.20
   4   0  -7  -16.10   36.70
   3   0  -7   86.29   15.60
   3   0  -7   96.39   10.20
   3   0  -7   67.29   17.50
   3   0  -7  109.19   17.40
   3   0  -7   68.49   19.30
  -3   0   7  116.69   21.00
   3   0  -7   91.99   18.20
   3   0  -7  134.89   25.80
  -2   0   7   18.70    7.70
   2   0  -7   19.20    5.50
   2   0  -7   12.20   12.80
  -2   0   7   25.40   13.20
   1   0  -7 6725.33  427.26
   1   0  -7 6507.85  427.16
  -1   0   7 5696.83  426.36
   0   0  -7   -6.50   12.30
   0   0  -7    0.50   10.20
   0   0  -7    3.00   10.30
   0   0   7    6.20    8.60
   0   0   7   -7.40    8.80
   0   0  -7   -3.60    9.40
   0   0  -7    7.00    8.00
   1   0   7 6088.19  408.96
   1   0   7 5470.35  408.76
  -1   0  -7 6552.34  409.26
   1   0   7 5186.58  407.16
  -1   0  -7 6451.35  409.86
  -1   0  -7 6493.15  409.56
  -2   0  -7   12.60   12.70
  -2   0  -7   -2.80   11.10
   2   0   7    4.10   18.90
  -2   0  -7    3.20    9.70
  -2   0  -7   -8.20   10.30
  -2   0  -7   -5.90   22.30
   2   0   7    6.60   10.00
  -3   0  -7 1551.44  119.89
  -3   0  -7 1651.73  109.99
  -3   0  -7 1556.84  108.59
  -3   0  -7 1472.65  108.79
   3   0   7 1460.75  114.49
   3   0   7 1556.24  107.09
   4   0   7  -34.80   33.30
  -4   0  -7   12.60   18.30
  -4   0  -7  -40.00   34.60
  -4   0  -7  -15.40   11.50
   5  -1  -7  208.58   40.40
   5  -1  -7  133.79   32.40
   5   1  -7  101.09   38.70
   5   1  -7  252.97   44.40
  -5   1   7  214.78   41.00
   5   1  -7  165.28   34.80
  -4  -1   7  588.24   53.19
   4  -1  -7  552.24   53.59
   4  -1  -7  567.44   49.30
   4  -1  -7  538.45   48.00
  -4  -1   7  531.85   58.89
   4   1  -7  596.54   52.79
   4   1  -7  544.15   52.29
  -4   1   7  594.14   51.09
  -3  -1   7 3745.83  251.27
   3  -1  -7 3382.56  248.98
   3  -1  -7 3672.73  248.68
   3  -1  -7 4069.59  251.97
  -3  -1   7 3807.62  251.37
   3  -1  -7 3451.45  249.58
   3  -1  -7 3662.43  248.28
   3  -1  -7 3616.24  249.97
   3   1  -7 3340.67  250.37
   3   1  -7 3347.47  248.78
  -3   1   7 3968.20  252.27
   3   1  -7 3809.42  251.57
   3   1  -7 3933.51  248.98
   2  -1  -7 1016.60   73.69
  -2  -1   7 1163.48   74.79
  -2  -1   7 1104.39   81.09
   2   1  -7 1001.10   71.19
   2   1  -7 1157.28   73.39
   2   1  -7 1007.60   76.29
   2   1  -7  992.80   73.19
  -2   1   7  962.50   76.89
   1  -1  -7 4282.97  290.17
   1  -1  -7 4081.69  289.67
  -1  -1   7 3965.00  290.17
  -1  -1   7 4320.17  290.47
   1  -1  -7 4855.41  290.67
   1  -1  -7 4620.14  290.17
  -1   1   7 3926.91  289.97
  -1   1   7 4431.66  290.17
   1   1  -7 3834.42  291.07
   1   1  -7 4114.89  288.87
   1   1  -7 4680.63  290.67
   0  -1  -7 1503.65  102.39
   0  -1  -7 1312.47  101.09
   0  -1   7 1575.04  100.79
   0  -1   7 1338.97  101.49
   0  -1   7 1486.45  101.19
   0  -1   7 1491.35   99.79
   0  -1  -7 1235.78  101.09
   0   1   7 1654.53  100.19
   0   1   7 1305.27  101.39
   0   1   7 1632.14   99.89
   0   1   7 1434.46  100.49
   0   1  -7 1320.27  102.29
   0   1   7 1507.85  100.99
   0   1  -7 1554.54  104.69
   1  -1   7   24.60   10.50
  -1  -1  -7   13.60    9.90
  -1  -1  -7   14.00   17.90
  -1  -1  -7    4.50    9.70
   1  -1   7   28.30   14.10
  -1   1  -7    7.60   14.00
  -1   1  -7   19.10    9.50
   1   1   7   20.00   13.30
  -1   1  -7   24.70   13.90
   1   1   7   26.40   11.80
   1   1   7   16.50   11.80
  -1   1  -7   19.20    9.40
  -2  -1  -7  152.38   38.40
  -2  -1  -7  208.78   23.80
  -2  -1  -7  183.48   21.50
   2  -1   7  138.39   22.10
   2  -1   7  175.28   32.70
   2   1   7  173.68   23.30
  -2   1  -7  175.08   16.80
  -2   1  -7  168.38   21.10
   2   1   7  169.88   16.80
   2   1   7  199.28   29.10
  -2   1  -7  147.39   31.30
  -2   1  -7  202.28   36.60
  -3  -1  -7  395.56   35.80
  -3  -1  -7  336.77   54.09
   3  -1   7  384.36   49.10
  -3  -1  -7  404.26   33.30
  -3  -1  -7  427.06   34.00
   3  -1   7  331.97   49.50
   3  -1   7  352.46   30.10
   3   1   7  407.36   37.10
  -3   1  -7  392.56   33.00
  -3   1  -7  467.15   55.89
  -3   1  -7  440.16   35.30
   3   1   7  386.96   46.60
  -3   1  -7  371.66   43.00
  -4  -1  -7  342.97   31.50
   4  -1   7  318.67   56.89
  -4  -1  -7  363.86   35.90
   4  -1   7  415.36   56.59
  -4   1  -7  350.36   34.70
   4   1   7  361.16   54.89
  -4   1  -7  368.96   47.00
   5  -2  -7   86.79   28.00
  -5  -2   7  116.89   34.20
   5   2  -7   56.09   23.00
  -5   2   7   52.89   25.50
   5   2  -7   34.40   33.70
  -4  -2   7   73.39   26.20
   4  -2  -7   31.00   12.90
   4  -2  -7   28.20   24.70
   4  -2  -7   49.90   21.40
   4   2  -7   32.20   16.10
   4   2  -7   57.39   23.80
  -4   2   7   63.49   22.00
   3  -2  -7   10.10   10.50
   3  -2  -7   23.10   15.30
   3  -2  -7    9.60   17.90
   3  -2  -7    6.50    6.90
  -3  -2   7   27.60   19.00
   3  -2  -7    1.70    7.30
  -3  -2   7   -3.90    8.50
  -3  -2   7   20.40   15.30
   3   2  -7   11.80    9.90
  -3   2   7   22.30   17.50
   3   2  -7   -6.80   18.20
   3   2  -7    6.10    6.70
   3   2  -7   -8.00    9.50
  -3   2   7    7.20    9.20
  -2  -2   7  537.95   41.70
   2  -2  -7  455.15   41.70
  -2  -2   7  482.35   38.20
  -2  -2   7  499.55   43.30
   2  -2  -7  494.95   37.80
   2  -2  -7  555.24   42.00
  -2   2   7  548.35   38.40
   2   2  -7  508.45   37.80
   1  -2  -7  644.84   44.40
  -1  -2   7  518.65   47.00
  -1  -2   7  597.54   43.40
   1  -2  -7  573.14   46.10
  -1  -2   7  627.14   44.70
   1   2  -7  648.64   43.70
   1   2  -7  517.25   48.20
   1   2  -7  580.44   43.00
  -1   2   7  504.25   48.00
  -1   2   7  660.03   43.70
   0  -2   7 5911.01  357.06
   0  -2   7 4984.60  354.36
   0  -2   7 5088.29  355.76
   0  -2  -7 5493.75  354.76
   0   2   7 5390.26  355.46
   0   2  -7 4590.54  355.26
   0   2  -7 5307.77  356.66
   1  -2   7 1908.91  135.19
   1  -2   7 2028.70  131.69
  -1  -2  -7 1971.90  135.89
   1  -2   7 2028.00  138.89
  -1  -2  -7 1799.12  133.59
  -1  -2  -7 1755.02  138.69
  -1   2  -7 2147.69  132.79
  -1   2  -7 2155.48  140.19
  -1   2  -7 1854.91  133.89
   1   2   7 1912.31  131.99
   1   2   7 1871.81  134.69
   1   2   7 1855.71  133.69
  -2  -2  -7 4408.56  308.57
  -2  -2  -7 4662.23  307.67
   2  -2   7 4223.88  307.87
   2  -2   7 4723.33  311.57
  -2  -2  -7 4391.06  305.17
  -2  -2  -7 4881.31  315.37
  -2   2  -7 4432.96  307.57
  -2   2  -7 4314.07  310.07
   2   2   7 4981.40  305.57
   2   2   7 4040.30  307.67
   2   2   7 4553.84  307.87
   2   2   7 4739.53  309.17
   3  -2   7  515.95   65.99
  -3  -2  -7  466.85   67.69
  -3  -2  -7  551.54   42.90
  -3  -2  -7  606.54   41.10
   3   2   7  575.14   49.00
   3   2   7  540.75   53.79
  -3   2  -7  489.55   55.79
   4  -2   7   89.39   37.40
  -4  -2  -7  -21.00   43.60
   4  -2   7    8.70   43.00
  -4  -2  -7   58.09   13.10
   4   2   7   38.10   32.00
   4   2   7   99.89   40.30
  -4   2  -7   37.50   30.90
   4  -3  -7 1220.48   94.99
   4  -3  -7 1276.27   93.59
   4  -3  -7 1044.00   83.89
  -4   3   7 1309.47   93.79
   4   3  -7 1177.98   94.19
  -4   3   7 1280.67   93.59
   4   3  -7 1095.59   94.59
   4   3  -7 1260.67   88.09
  -3  -3   7   61.39   25.70
  -3  -3   7   84.09   15.20
   3  -3  -7   65.69   20.20
  -3  -3   7   88.59   16.70
   3  -3  -7   51.49   10.00
   3   3  -7   42.60   22.20
   3   3  -7   56.39   10.50
  -3   3   7   50.69   23.60
   3   3  -7   17.80   20.90
  -3   3   7   79.19   19.00
  -3   3   7   65.39   12.70
  -2  -3   7 4423.56  299.27
   2  -3  -7 4297.67  298.17
  -2  -3   7 3928.41  301.27
   2  -3  -7 4469.65  299.07
   2  -3  -7 4512.85  296.07
  -2  -3   7 4389.36  298.17
   2  -3  -7 3982.50  299.67
  -2  -3   7 4984.60  298.17
   2   3  -7 4514.35  296.57
  -2   3   7 4380.26  298.27
   2   3  -7 4464.85  299.67
  -2   3   7 4297.27  298.87
  -2   3   7 4541.25  303.07
   2   3  -7 4635.54  298.17
   2   3  -7 3872.91  300.27
  -2   3   7 4648.44  296.37
   1  -3  -7   16.90   10.00
  -1  -3   7  -17.80   21.70
   1  -3  -7   14.20    8.50
  -1  -3   7   17.60   12.30
   1  -3  -7   -1.70   22.00
   1  -3  -7    9.30    9.00
  -1  -3   7    0.30    7.40
   1   3  -7   10.40    6.20
   1   3  -7    1.20    8.90
   1   3  -7   -0.90   12.70
  -1   3   7   12.80    8.60
   0  -3  -7 1483.95  102.59
   0  -3   7 1578.44  106.89
   0  -3   7 1581.14  103.49
   0  -3  -7 1377.16  101.19
   0  -3  -7 1444.26  101.49
   0  -3   7 1535.85  101.69
   0  -3  -7 1480.75  107.09
   0  -3   7 1451.65  102.69
   0   3   7 1514.05  102.59
   0   3  -7 1361.66  100.89
   0   3   7 1482.15  105.49
   0   3  -7 1411.66  102.49
   0   3   7 1474.35  102.09
   0   3  -7 1451.65  101.29
   0   3  -7 1423.86  104.69
  -1  -3  -7  101.19   18.00
   1  -3   7   96.89   18.40
   1  -3   7  114.29   25.00
  -1  -3  -7   49.30   27.00
  -1  -3  -7   93.89   10.30
   1  -3   7   48.60   25.10
  -1  -3  -7   94.39   21.40
   1   3   7   97.39   20.20
  -1   3  -7  127.59   28.30
   1   3   7  103.29   17.10
  -1   3  -7   93.69   11.30
  -2  -3  -7  801.72   61.09
  -2  -3  -7  802.02   78.99
  -2  -3  -7  818.12   65.19
   2  -3   7  906.61   70.59
   2  -3   7  974.60   71.39
   2  -3   7  828.42   63.49
   2   3   7  804.62   65.59
   2   3   7  824.52   61.69
  -2   3  -7  799.22   69.89
  -2   3  -7  767.62   61.39
  -3  -3  -7   27.00   12.20
  -3  -3  -7   29.90   25.00
   3  -3   7   23.80   34.10
   3  -3   7   90.09   36.40
  -3  -3  -7  -35.20   40.10
   3   3   7   62.49   22.80
   3   3   7   -5.90   28.50
   4  -3   7  656.03   85.69
   4   3   7  697.33   61.09
   4   3   7  549.15   69.79
  -4  -4   7   71.69   38.40
   4  -4  -7   33.70   30.40
   4   4  -7   49.30   12.50
   4   4  -7   86.89   30.30
  -4   4   7   89.99   24.40
  -4   4   7   73.89   26.40
   4   4  -7   81.39   26.30
   3  -4  -7   -8.00   22.20
  -3  -4   7   15.70   14.10
  -3  -4   7   15.10   10.50
   3  -4  -7   46.10   35.20
  -3   4   7   34.20   21.10
   3   4  -7   -6.50   22.60
   3   4  -7    6.20   20.60
   3   4  -7   -3.20    9.60
   2  -4  -7  682.63   52.19
   2  -4  -7  667.13   45.80
  -2  -4   7  615.74   48.20
   2  -4  -7  639.64   48.70
  -2  -4   7  693.23   51.59
   2  -4  -7  523.65   55.99
  -2  -4   7  581.14   61.29
  -2   4   7  719.13   65.49
  -2   4   7  641.94   51.89
   2   4  -7  646.84   48.10
   2   4  -7  641.54   54.69
  -2   4   7  554.24   51.29
   2   4  -7  607.44   53.19
   1  -4  -7  850.71   58.19
  -1  -4   7  794.52   69.09
   1  -4  -7  858.81   66.89
   1  -4  -7  823.92   60.09
  -1  -4   7  769.02   59.69
   1  -4  -7  836.02   59.99
   1   4  -7  861.11   60.69
   1   4  -7  811.42   63.39
   1   4  -7  795.42   61.19
  -1   4   7  826.12   60.49
  -1   4   7  741.63   68.79
   1   4  -7  788.52   57.69
  -1   4   7  793.02   63.49
  -1   4   7  784.22   59.79
   0  -4  -7 4003.20  297.07
   0  -4  -7 4356.26  296.47
   0  -4   7 3947.90  297.07
   0  -4   7 5044.00  301.37
   0  -4   7 5057.99  300.07
   0  -4  -7 4109.19  295.47
   0  -4  -7 4359.06  295.57
   0   4   7 4635.54  300.17
   0   4  -7 4625.34  298.57
   0   4   7 4234.28  297.27
   0   4  -7 4188.38  295.87
   0   4  -7 3910.81  297.07
   1  -4   7  584.44   59.49
  -1  -4  -7  577.94   50.29
   1  -4   7  618.24   48.60
   1  -4   7  666.93   54.89
  -1  -4  -7  577.54   47.70
   1   4   7  630.94   48.60
  -1   4  -7  623.94   54.09
  -1   4  -7  683.83   45.70
   1   4   7  576.24   53.99
  -1   4  -7  563.74   48.20
   2  -4   7 1527.75  105.29
  -2  -4  -7 1339.47   96.99
  -2  -4  -7 1291.37  100.59
   2  -4   7 1224.28  112.59
   2  -4   7 1382.86   98.29
  -2  -4  -7 1428.86  118.39
   2   4   7 1379.26  101.39
  -2   4  -7 1376.06  107.19
  -2   4  -7 1259.87   97.29
   2   4   7 1420.56   98.19
  -3  -4  -7  183.48   44.50
   3  -4   7  237.98   46.20
   3  -4   7  259.17   56.09
   3   4   7  292.47   45.40
   3   4   7  242.78   31.90
  -3  -5   7  857.81   94.39
   3  -5  -7 1010.80   86.29
   3  -5  -7 1024.60   83.09
   3  -5  -7 1012.80   72.99
  -3  -5   7 1115.59   81.69
   3   5  -7 1140.89   80.89
   3   5  -7 1019.50   83.49
  -3   5   7  988.60   80.99
  -2  -5   7  669.13   70.09
   2  -5  -7  677.23   57.09
   2  -5  -7  720.03   51.49
  -2  -5   7  772.92   64.39
   2  -5  -7  573.94   63.29
  -2  -5   7  637.64   53.09
   2   5  -7  658.73   53.19
   2   5  -7  766.52   58.59
  -2   5   7  678.93   57.09
   1  -5  -7  859.61   64.39
   1  -5  -7  981.90   74.59
  -1  -5   7  806.62   77.29
   1  -5  -7  907.51   63.89
  -1  -5   7  812.92   64.99
   1  -5  -7  842.92   65.09
  -1   5   7  859.71   65.39
   1   5  -7  950.50   69.09
   1   5  -7  846.42   64.99
  -1   5   7  841.32   77.09
  -1   5   7  782.12   64.79
   1   5  -7  896.81   66.49
   0  -5   7    2.30   27.30
   0  -5  -7    5.00   15.90
   0  -5  -7   -0.20   29.20
   0  -5   7   -6.10   25.50
   0  -5  -7   -4.10   13.90
   0  -5  -7   -1.40    9.70
   0  -5   7   11.00   11.70
   0   5   7    0.20   25.50
   0   5  -7   -7.80   13.80
   0   5   7   -2.00   11.80
   0   5  -7   21.90   20.40
   0   5  -7  -10.70   22.40
   1  -5   7   47.10   32.70
   1  -5   7   44.20   13.70
  -1  -5  -7   46.80   15.90
   1  -5   7   62.99   27.00
  -1  -5  -7   33.40   20.50
  -1  -5  -7    3.50   37.20
   1   5   7   37.10   16.40
  -1   5  -7   42.70   33.80
  -1   5  -7   66.69   15.20
   1   5   7   42.20   27.90
  -1   5  -7   26.90   14.30
  -2  -5  -7  149.88   28.40
   2  -5   7  231.68   42.40
  -2  -5  -7  157.68   27.50
  -2  -5  -7  146.29   49.60
   2   5   7  192.48   29.20
  -2   5  -7  166.38   34.60
  -3  -5  -7   63.79   29.30
   3  -5   7   68.09   44.50
  -3  -5  -7   -6.70   52.89
  -3   5  -7   42.60   37.00
   2  -6  -7  109.29   30.40
  -2  -6   7  105.79   35.90
  -2  -6   7   85.09   41.80
  -2   6   7  129.79   43.40
  -2   6   7  104.59   23.00
   2   6  -7  117.19   26.40
  -1  -6   7  594.64   50.09
  -1  -6   7  613.24   66.09
   1  -6  -7  629.14   50.49
   1  -6  -7  509.45   49.30
   1  -6  -7  601.64   53.29
  -1   6   7  626.44   67.99
  -1   6   7  591.84   50.69
   1   6  -7  633.04   53.29
  -1   6   7  532.95   50.59
   1   6  -7  587.84   50.99
   1   6  -7  673.73   55.59
   0  -6  -7   34.60   20.10
   0  -6  -7   18.30   15.10
   0  -6   7   54.09   34.10
   0  -6   7   32.40   13.80
   0  -6   7   36.10   33.60
   0  -6  -7   55.49   34.00
   0   6   7    5.90   26.80
   0   6  -7   -1.70   17.50
   0   6  -7   40.20   17.80
   0   6  -7   14.60   23.00
  -1  -6  -7 1065.59   81.59
   1  -6   7 1040.40   79.49
   1  -6   7 1183.18   90.99
  -1  -6  -7  935.81   90.99
  -1   6  -7  996.80   79.19
  -1   6  -7 1073.09   85.69
   1   6   7 1035.20   88.19
   1   6   7 1003.70   79.99
  -2  -6  -7    0.30   27.20
   2  -6   7   41.90   37.20
  -2  -6  -7  -57.49   47.40
   2  -6   7    8.50   40.40
   2   6   7   46.80   32.30
  -1  -7   7  279.07   52.29
   1  -7  -7  432.06   61.79
   1   7  -7  343.37   46.00
  -1   7   7  360.36   57.39
   1   7  -7  254.57   45.50
  -1   7   7  317.97   61.89
   0  -7   7  124.39   62.49
   0  -7  -7  161.08   36.90
   0   7  -7  135.59   29.40
   0   7   7  219.68   52.19
   5   0  -8   32.60   27.90
  -5   0   8   40.90   25.20
   5   0  -8    6.40   21.50
   5   0  -8   74.59   26.50
   4   0  -8 1078.09   90.09
   4   0  -8 1001.90   76.29
  -4   0   8 1003.10   82.09
   4   0  -8 1109.59   80.99
   3   0  -8   17.00    8.40
   3   0  -8   -2.80    7.40
  -3   0   8   20.10   17.40
  -3   0   8   24.10   12.20
   3   0  -8    9.10    9.90
   3   0  -8   13.40   12.70
   3   0  -8   16.90   18.20
  -2   0   8  284.67   30.50
   2   0  -8  261.07   28.60
   2   0  -8  232.48   23.10
   2   0  -8  262.57   25.20
  -2   0   8  295.37   21.70
   2   0  -8  229.88   19.30
   2   0  -8  278.27   22.90
   1   0  -8   -3.40    6.90
   1   0  -8    8.10    5.10
   1   0  -8   -9.90   11.30
   1   0  -8   -1.30    9.50
   1   0  -8    2.40    9.10
   0   0  -8 5234.08  367.96
   0   0  -8 5293.67  366.76
   0   0   8 5918.41  366.96
   0   0  -8 5216.18  365.86
  -1   0  -8    2.40    9.70
  -1   0  -8   -2.80   11.10
  -1   0  -8   -7.20    9.40
   1   0   8  -15.10   13.50
  -1   0  -8   -3.70   15.90
   2   0   8 3845.22  269.67
  -2   0  -8 4288.87  272.27
   2   0   8 3712.73  272.47
  -2   0  -8 3547.85  270.37
  -2   0  -8 4002.60  272.07
  -2   0  -8 4213.28  272.47
  -2   0  -8 4252.07  276.57
  -3   0  -8   24.50   17.60
  -3   0  -8    1.40   13.80
   3   0   8  -20.80   24.80
  -3   0  -8  -33.70   31.20
  -3   0  -8   -7.10   13.10
  -4   0  -8  234.88   64.59
  -4   0  -8  368.46   33.30
   4   0   8  302.07   54.69
  -4   0  -8  361.46   41.70
   5  -1  -8   22.20   30.90
   5  -1  -8   36.30   24.50
  -5   1   8   35.90   25.70
   5   1  -8   21.50   20.50
   5   1  -8   63.59   27.90
  -4  -1   8  501.15   49.00
   4  -1  -8  478.05   45.30
   4  -1  -8  473.05   41.70
  -4  -1   8  497.05   49.00
   4  -1  -8  515.05   52.89
  -4   1   8  548.85   50.89
   4   1  -8  492.95   41.20
   4   1  -8  517.25   51.69
   3  -1  -8 1004.70   74.59
  -3  -1   8 1174.08   81.39
   3  -1  -8 1235.08   82.29
   3  -1  -8 1053.19   75.79
   3  -1  -8 1092.99   77.69
   3  -1  -8 1060.09   78.09
  -3  -1   8 1144.89   80.09
   3   1  -8 1117.39   75.69
   3   1  -8  935.11   76.59
   3   1  -8 1114.29   81.69
   3   1  -8 1156.88   75.99
   3   1  -8  991.70   77.09
  -3   1   8 1173.48   82.79
   2  -1  -8 5307.87  340.87
   2  -1  -8 4855.11  339.67
  -2  -1   8 5208.58  340.57
  -2   1   8 4666.43  342.37
   2   1  -8 5560.54  340.47
   2   1  -8 4885.71  340.87
   2   1  -8 4695.03  341.47
  -1  -1   8 1921.91  127.69
  -1  -1   8 1730.73  127.09
  -1  -1   8 1590.24  127.09
   1  -1  -8 1922.91  127.09
   1  -1  -8 1869.11  126.49
  -1   1   8 2000.10  129.19
   1   1  -8 2076.59  127.99
   1   1  -8 1709.13  128.69
   1   1  -8 1729.73  125.09
   0  -1  -8 3598.84  243.28
   0  -1   8 3233.08  240.98
   0  -1   8 4163.28  243.18
   0  -1  -8 3587.74  242.68
   0  -1   8 3452.15  242.78
   0  -1   8 3607.94  242.08
   0   1  -8 3776.52  243.68
   0   1   8 3131.19  241.58
   0   1   8 3566.54  241.08
   0   1  -8 3185.38  241.28
   0   1   8 3095.79  242.48
   0   1  -8 3870.11  244.28
   0   1  -8 4029.20  242.08
  -1  -1  -8  971.70   72.19
  -1  -1  -8 1018.30   72.69
  -1  -1  -8 1020.40   76.49
   1  -1   8 1008.40   69.79
  -1   1  -8 1050.09   72.69
   1   1   8  863.81   71.19
  -1   1  -8  974.80   74.59
  -1   1  -8 1040.10   74.79
   1   1   8  941.21   71.29
   2  -1   8   22.10    9.30
  -2  -1  -8   20.30   12.80
  -2  -1  -8   22.00   11.70
  -2  -1  -8   -1.80   24.20
   2  -1   8   17.30   19.20
  -2  -1  -8   19.10   11.90
  -2   1  -8   -9.90   17.30
   2   1   8   27.60   14.00
  -2   1  -8    8.00   24.50
   2   1   8    6.80   18.70
  -2   1  -8    5.50   10.80
  -2   1  -8   12.40   11.30
   3  -1   8    3.50   28.70
  -3  -1  -8  -19.40   32.10
  -3  -1  -8   12.00   12.50
  -3  -1  -8   -1.90   11.60
  -3   1  -8  -14.20   21.80
   3   1   8  -10.30   25.60
   3   1   8    4.50   15.30
  -3   1  -8  -12.90   30.10
  -3   1  -8   19.50   14.30
   4  -1   8  101.19   34.80
  -4  -1  -8   62.79   17.40
  -4  -1  -8    5.10   39.50
  -4  -1  -8   65.89   16.10
   4   1   8   45.60   32.50
   4  -2  -8  246.78   42.40
   4  -2  -8  286.47   36.70
  -4  -2   8  284.77   39.20
   4  -2  -8  240.48   22.10
  -4  -2   8  274.57   43.30
   4  -2  -8  204.48   22.30
   4   2  -8  226.58   26.60
   4   2  -8  176.88   35.70
  -4   2   8  283.97   43.50
   4   2  -8  225.28   42.90
   3  -2  -8  546.35   46.90
  -3  -2   8  522.55   45.40
   3  -2  -8  472.55   37.00
  -3  -2   8  560.74   47.50
   3  -2  -8  510.75   43.60
   3   2  -8  479.85   36.80
   3   2  -8  429.46   36.00
  -3   2   8  491.65   38.50
  -3   2   8  461.85   49.90
   2  -2  -8   30.00   14.20
   2  -2  -8   35.80    9.40
  -2  -2   8   22.00   16.40
  -2  -2   8   26.30    9.30
   2  -2  -8   32.30   14.00
  -2  -2   8   35.30   13.60
   2   2  -8   31.30   13.80
   2   2  -8    6.80   19.30
  -2   2   8   35.70   10.10
   1  -2  -8  300.77   25.20
  -1  -2   8  250.87   24.50
   1  -2  -8  232.78   28.70
  -1  -2   8  293.87   27.50
   1  -2  -8  280.87   26.80
   1   2  -8  231.08   48.20
   1   2  -8  297.57   25.30
  -1   2   8  276.17   25.10
   0  -2  -8  856.21   62.39
   0  -2   8  797.92   67.69
   0  -2  -8  827.52   63.89
   0  -2  -8  924.51   63.49
   0  -2  -8  837.32   67.99
   0  -2   8  874.01   62.99
   0  -2  -8  902.51   64.59
   0  -2   8  986.20   63.89
   0   2  -8  991.60   65.39
   0   2   8  918.41   64.19
   0   2  -8  947.51   70.19
   0   2  -8  796.62   62.19
   0   2   8  983.40   62.69
   0   2   8  808.82   66.69
   0   2   8  890.61   63.09
   1  -2   8 3700.53  230.78
  -1  -2  -8 3338.17  236.98
  -1  -2  -8 3012.90  231.88
  -1  -2  -8 3474.25  233.08
   1  -2   8 3261.77  232.58
   1  -2   8 3443.76  233.88
   1   2   8 3407.66  232.38
  -1   2  -8 3774.82  235.38
   1   2   8 3235.38  233.08
   1   2   8 3450.55  233.28
   1   2   8 3301.17  230.88
  -1   2  -8 3508.15  233.28
  -2  -2  -8  554.04   60.19
   2  -2   8  508.25   55.99
  -2  -2  -8  551.14   43.30
  -2  -2  -8  540.75   39.80
   2  -2   8  485.85   43.50
   2   2   8  558.84   48.10
   2   2   8  530.25   46.90
  -2   2  -8  532.35   43.40
  -2   2  -8  454.65   52.59
   2   2   8  630.94   40.00
  -3  -2  -8 2097.79  151.28
  -3  -2  -8 2084.19  136.39
  -3  -2  -8 1891.41  133.19
   3  -2   8 2016.80  175.18
  -3   2  -8 1817.22  143.29
   3   2   8 1993.80  137.49
   3   2   8 1997.70  153.08
   3   2   8 1784.92  132.99
  -4  -2  -8   40.70   44.60
   4  -2   8   24.60   44.80
   4   2   8  101.79   37.50
  -4   2  -8   37.20   31.10
   4  -3  -8   73.79   25.50
   4  -3  -8    9.90   27.80
   4   3  -8   31.30   15.10
   4   3  -8  -15.60   25.10
   4   3  -8   72.69   27.20
  -4   3   8   33.80   26.00
   3  -3  -8 2032.60  135.39
  -3  -3   8 1944.11  138.59
  -3  -3   8 1923.31  139.59
  -3  -3   8 1871.81  130.99
   3  -3  -8 1925.51  134.59
   3   3  -8 1709.43  128.79
   3   3  -8 1990.50  130.39
  -3   3   8 1653.43  138.29
   3   3  -8 1869.11  136.49
   3   3  -8 2009.20  143.09
  -2  -3   8   28.40   16.90
   2  -3  -8   -0.70   16.70
   2  -3  -8   18.20    8.70
  -2  -3   8   13.50    9.90
   2  -3  -8   19.40   15.20
   2   3  -8    2.10   20.10
  -2   3   8  -10.50   23.40
   2   3  -8  -18.50   18.90
   2   3  -8    5.50    9.70
  -2   3   8    8.10    9.80
  -1  -3   8 6264.87  391.56
  -1  -3   8 5813.02  391.96
   1  -3  -8 5621.64  388.26
   1  -3  -8 5714.23  387.66
  -1   3   8 5157.68  390.76
  -1   3   8 5673.33  388.26
   1   3  -8 5947.90  388.36
   1   3  -8 5671.13  390.06
   0  -3  -8  112.19   24.20
   0  -3   8  120.19   24.80
   0  -3  -8  153.38   19.30
   0  -3   8  176.38   20.50
   0  -3   8  184.28   20.70
   0  -3  -8  142.29   19.80
   0  -3   8  151.88   23.90
   0  -3  -8  131.19   18.20
   0  -3  -8  173.18   21.30
   0   3  -8  145.99   30.30
   0   3   8  163.58   20.80
   0   3   8  162.18   24.50
   0   3  -8  137.69   20.70
   1  -3   8 2248.77  171.38
  -1  -3  -8 2404.96  167.78
   1  -3   8 2355.36  167.88
  -1  -3  -8 2331.97  174.48
  -1  -3  -8 2253.17  164.58
   1  -3   8 2429.26  169.08
  -1  -3  -8 2476.25  169.58
   1   3   8 2453.75  167.88
  -1   3  -8 2373.86  167.88
   1   3   8 2456.35  169.48
  -1   3  -8 2720.03  170.78
  -1   3  -8 2690.93  165.48
  -2  -3  -8   -1.20   18.80
   2  -3   8   -0.80   24.10
   2  -3   8   17.10   13.70
  -2  -3  -8  -31.00   30.20
   2  -3   8   49.00   31.10
  -2  -3  -8   -4.70   11.30
   2   3   8   -0.60    9.60
  -2   3  -8  -21.20   24.20
   2   3   8   13.40   20.30
  -2   3  -8    1.60   12.70
  -3  -3  -8  167.58   38.00
  -3  -3  -8   87.09   41.80
  -3  -3  -8  129.89   24.10
   3  -3   8  118.59   39.10
   3   3   8  222.88   52.09
   3   3   8  124.49   31.10
   4   3   8  -34.60   46.60
   4  -4  -8  192.78   35.10
  -4  -4   8  247.18   48.60
  -4   4   8  174.58   37.20
   4   4  -8  275.57   53.29
   4   4  -8  233.48   38.50
  -3  -4   8  400.56   33.80
   3  -4  -8  389.06   74.09
   3  -4  -8  335.87   44.50
  -3  -4   8  339.07   30.10
  -3  -4   8  274.37   61.79
   3   4  -8  289.27   47.00
   3   4  -8  330.77   31.10
  -3   4   8  412.56   41.60
   3   4  -8  313.57   45.40
   2  -4  -8   69.99   22.90
   2  -4  -8   75.19   13.70
   2  -4  -8  118.69   27.70
  -2  -4   8   97.09   15.30
  -2  -4   8  132.79   19.60
   2  -4  -8  118.79   16.20
   2   4  -8   64.39   21.30
  -2   4   8   62.09   12.90
  -2   4   8  120.69   32.70
   2   4  -8   93.29   14.30
   2   4  -8   94.89   15.30
   2   4  -8   90.49   22.90
  -2   4   8  111.49   17.00
  -2   4   8  121.59   27.60
   1  -4  -8  145.89   33.60
   1  -4  -8  118.79   21.60
   1  -4  -8  104.59   17.60
  -1  -4   8  115.29   27.30
   1  -4  -8  144.59   22.30
  -1  -4   8  121.69   20.80
  -1  -4   8   82.99   30.40
   1   4  -8  138.29   32.00
   1   4  -8  132.99   21.10
  -1   4   8   75.69   27.70
   1   4  -8  105.19   25.90
   0  -4  -8  590.84   54.69
   0  -4  -8  488.65   41.00
   0  -4   8  492.45   41.90
   0  -4   8  535.35   55.79
   0  -4  -8  505.55   42.40
   0  -4  -8  513.95   39.50
   0  -4  -8  448.36   38.50
   0  -4   8  576.94   48.90
   0   4  -8  460.15   42.20
   0   4  -8  497.25   40.30
   0   4   8  486.65   41.60
   0   4   8  486.35   50.99
   0   4  -8  569.24   48.30
  -1  -4  -8 2795.32  204.58
  -1  -4  -8 2881.21  212.88
   1  -4   8 3063.19  207.28
   1  -4   8 2769.82  204.78
   1  -4   8 2925.41  209.28
   1   4   8 3025.20  207.38
  -1   4  -8 3165.68  202.78
  -1   4  -8 3222.18  208.18
  -1   4  -8 3101.69  201.78
   1   4   8 2994.00  205.18
  -1   4  -8 2799.32  204.78
   2  -4   8  439.86   51.89
  -2  -4  -8  291.07   64.79
  -2  -4  -8  376.26   43.80
   2  -4   8  314.27   59.69
  -2  -4  -8  356.76   35.50
  -2   4  -8  351.56   52.29
   2   4   8  422.76   47.70
   2   4   8  413.16   36.70
  -2   4  -8  361.46   36.50
   3  -4   8 1201.68  101.19
  -3  -4  -8 1065.99   89.49
  -3  -4  -8 1050.49  110.79
   3   4   8 1146.99   89.09
   3   4   8 1067.69   95.09
  -3  -5   8  317.87   42.00
   3  -5  -8  251.97   46.20
   3  -5  -8  369.56   51.09
   3   5  -8  417.66   47.60
  -3   5   8  379.06   44.80
   3   5  -8  293.07   49.00
  -2  -5   8 1731.43  128.09
   2  -5  -8 1790.92  129.39
   2  -5  -8 1866.31  125.49
  -2  -5   8 1947.71  140.49
   2  -5  -8 1704.93  133.69
  -2  -5   8 1860.01  131.29
   2   5  -8 1870.11  141.69
  -2   5   8 1823.02  129.49
   2   5  -8 1821.72  128.29
   2   5  -8 1867.61  131.39
   1  -5  -8  945.61   88.69
   1  -5  -8 1092.59   74.59
   1  -5  -8 1020.30   75.39
   1   5  -8 1160.58   81.69
  -1   5   8  974.10   76.59
   1   5  -8 1042.60   76.69
  -1   5   8  988.30   87.89
   1   5  -8 1035.70   77.79
   0  -5   8  997.80   79.79
   0  -5   8  868.51   69.79
   0  -5  -8  931.41   69.59
   0  -5  -8  927.91   70.39
   0  -5  -8  957.40   66.89
   0   5  -8  942.01   68.59
   0   5  -8 1058.29   75.19
   0   5   8  970.20   80.89
   0   5  -8  771.32   74.89
   0   5   8  882.21   69.99
   1  -5   8  162.68   41.90
   1  -5   8   98.69   18.90
   1  -5   8  133.89   37.80
  -1  -5  -8  102.89   18.00
  -1  -5  -8   50.59   34.60
  -1  -5  -8  142.99   23.70
   1   5   8  140.59   21.50
  -1   5  -8  116.69   29.70
  -1   5  -8  105.09   20.40
   1   5   8  112.99   29.70
   2  -5   8   -0.30   38.70
   2  -5   8   79.49   34.90
  -2  -5  -8  -16.40   42.90
  -2  -5  -8   49.50   26.30
  -2   5  -8  -17.10   29.20
   2   5   8   68.49   27.20
   3  -5   8  -34.50   71.19
   3  -5   8   83.69   45.90
  -3  -5  -8  -50.59   71.29
  -3  -5  -8   40.90   30.20
  -3   5  -8  -48.40   45.00
   2  -6  -8   28.70   28.50
   2  -6  -8   12.00   15.20
  -2  -6   8    6.20   27.10
  -2   6   8   15.20   19.60
   2   6  -8    4.90   24.70
  -2   6   8  -14.20   39.90
  -1  -6   8   65.79   40.50
   1  -6  -8  132.69   27.30
   1   6  -8  113.59   23.80
   1   6  -8  192.48   38.60
  -1   6   8  112.19   35.30
   0  -6  -8  490.75   41.60
   0  -6   8  534.85   46.90
   0  -6  -8  540.45   48.40
   0  -6  -8  495.05   47.30
   0  -6   8  547.55   65.19
   0   6  -8  582.94   47.20
   0   6   8  511.35   60.99
   0   6  -8  494.65   47.50
   0   6  -8  589.44   56.59
   0   6   8  445.76   47.60
  -1  -6  -8   41.90   41.30
   1  -6   8   31.30   36.20
  -1  -6  -8   31.40   21.90
   1  -6   8   64.59   36.30
   1   6   8   50.79   31.70
  -1   6  -8   11.80   19.80
  -1   6  -8    9.70   29.00
  -2  -6  -8  430.86   61.09
   2  -6   8  552.94   72.09
   2   6   8  495.25   77.29
   0  -7   8  322.77   52.89
   0  -7  -8  319.47   43.10
   0   7   8  453.05   94.89
  -5   0   9  729.53   70.29
   5   0  -9  697.53   61.39
   5   0  -9  772.82   70.39
   4   0  -9   19.90   15.40
   4   0  -9   34.90   24.30
   4   0  -9    1.80   19.70
  -4   0   9   34.90   21.20
  -3   0   9 2861.51  182.88
   3   0  -9 2336.67  181.08
   3   0  -9 2989.80  183.88
   3   0  -9 2694.43  184.88
   3   0  -9 2805.72  186.08
   3   0  -9 2529.75  182.88
   3   0  -9 2623.64  182.08
  -3   0   9 2717.73  186.88
   3   0  -9 2563.74  182.48
   2   0  -9   -2.50   10.40
   2   0  -9    0.90   15.30
  -2   0   9    3.20   16.60
   2   0  -9    6.30    4.90
   1   0  -9  257.27   22.60
   1   0  -9  322.37   28.30
   1   0  -9  206.78   29.10
   1   0  -9  269.27   20.80
   0   0   9   11.10   11.40
   0   0   9    3.50   11.40
   0   0  -9    1.60   12.20
   0   0  -9  -10.70   10.90
   0   0  -9  -11.60   12.40
   0   0  -9   -4.40   11.80
   1   0   9 2581.64  191.48
  -1   0  -9 2588.84  193.68
  -1   0  -9 3043.30  194.88
  -1   0  -9 2963.80  193.38
  -1   0  -9 2775.82  192.58
  -2   0  -9    6.20   23.20
  -2   0  -9    5.90   11.90
   2   0   9    1.60   12.10
  -2   0  -9   -0.60   12.30
   2   0   9  -23.10   18.90
  -3   0  -9 1811.72  127.39
   3   0   9 1728.73  122.89
   4   0   9    0.50   29.50
  -5  -1   9   27.70   29.50
   5  -1  -9   19.70   45.10
   5   1  -9   54.39   28.60
  -5   1   9   -2.10   28.10
   4  -1  -9   16.50   25.40
   4  -1  -9   20.10   16.90
   4  -1  -9   16.40   11.30
  -4  -1   9   26.90   23.30
  -4  -1   9   26.40   19.60
   4   1  -9   33.20   22.70
  -4   1   9   29.00   28.90
   4   1  -9   10.20   12.40
  -3  -1   9 1057.49   78.09
   3  -1  -9 1158.68   80.69
   3  -1  -9 1053.09   76.59
   3  -1  -9 1086.19   76.69
   3  -1  -9 1022.00   74.59
  -3  -1   9 1098.29   80.59
   3   1  -9 1060.99   81.39
  -3   1   9 1094.09   83.09
   3   1  -9 1094.29   74.99
   3   1  -9  968.60   73.99
   2  -1  -9 1003.60   78.79
   2  -1  -9 1191.38   81.59
   2  -1  -9 1181.08   79.59
   2  -1  -9 1144.09   80.59
  -2  -1   9 1098.99   81.89
  -2  -1   9 1161.88   79.89
  -2   1   9  939.71   84.29
   2   1  -9 1259.87   82.29
   2   1  -9 1295.77   83.89
   2   1  -9  946.51   82.59
  -1  -1   9 6645.64  460.95
  -1  -1   9 6438.76  460.95
   1  -1  -9 7162.38  461.75
   1   1  -9 6828.62  459.45
   1   1  -9 6980.50  461.65
   0  -1  -9 2406.76  161.18
   0  -1   9 2186.48  159.78
   0  -1  -9 2564.94  161.98
   0  -1  -9 2301.27  160.98
   0  -1  -9 2611.04  161.18
   0   1  -9 2474.55  161.88
   0   1   9 2030.30  160.48
   0   1   9 2183.68  160.58
   0   1  -9 2524.95  159.78
   0   1  -9 2098.49  158.78
   0   1   9 2197.18  158.38
  -1  -1  -9 3680.73  233.88
  -1  -1  -9 3318.97  230.98
   1  -1   9 2859.81  229.88
  -1  -1  -9 3239.08  231.08
   1  -1   9 3865.41  228.88
  -1   1  -9 3384.56  231.98
   1   1   9 3629.34  228.48
  -1   1  -9 3370.56  231.88
   1   1   9 3184.28  229.28
   1   1   9 3052.39  229.28
   2  -1   9  558.54   40.10
   2  -1   9  569.34   50.69
  -2  -1  -9  472.55   44.10
  -2  -1  -9  512.35   57.09
  -2  -1  -9  584.84   45.50
  -2   1  -9  503.55   55.79
   2   1   9  487.85   44.30
   2   1   9  472.35   47.20
  -2   1  -9  519.25   44.40
  -3  -1  -9   25.40   15.00
   3  -1   9   31.80   27.40
  -3  -1  -9    2.50   33.70
  -3  -1  -9   12.70   16.20
   3   1   9   15.90   28.00
   3   1   9   47.80   16.80
  -3   1  -9   43.50   14.30
  -3   1  -9  -22.10   50.19
   4  -1   9   11.80   33.50
   4   1   9  -10.20   34.80
  -4   1  -9  -42.90   27.40
   4  -2  -9 1010.70   79.89
  -4  -2   9 1231.68   88.79
  -4  -2   9 1123.49   89.39
   4  -2  -9 1241.18   90.19
   4  -2  -9 1217.18   86.19
   4   2  -9  965.90   77.49
   4   2  -9 1019.60   94.09
   4   2  -9 1043.30   89.99
  -4   2   9 1284.27  100.09
   4   2  -9 1234.28   79.49
   3  -2  -9  664.53   54.99
  -3  -2   9  723.83   57.29
   3  -2  -9  727.73   57.99
  -3  -2   9  708.53   58.39
  -3   2   9  574.64   62.69
   3   2  -9  688.43   49.99
  -2  -2   9 1549.05  104.89
  -2  -2   9 1431.46  102.69
   2  -2  -9 1542.75  102.49
   2  -2  -9 1551.74  104.49
   2  -2  -9 1316.37  103.39
  -2  -2   9 1366.16  105.79
  -2   2   9 1380.06  108.69
  -2   2   9 1517.55  102.69
   2   2  -9 1374.46  106.99
   2   2  -9 1608.24  102.49
  -1  -2   9    2.20    9.30
   1  -2  -9  -12.60   14.50
   1  -2  -9    4.60   12.30
   1  -2  -9    4.30   11.20
  -1  -2   9   15.20   18.20
  -1   2   9  -23.50   17.70
   1   2  -9  -20.10   18.30
  -1   2   9    3.40    8.90
   1   2  -9    9.40   11.80
   0  -2  -9   -7.00   10.50
   0  -2   9    4.90   11.80
   0  -2  -9   11.30   10.40
   0  -2  -9  -15.10   17.20
   0  -2  -9  -16.20   11.90
   0  -2   9   17.50    8.00
   0  -2   9    5.50    9.90
   0   2   9   14.10   11.00
   0   2  -9    0.70   11.20
   0   2   9    8.40    9.60
  -1  -2  -9 1092.89   86.99
  -1  -2  -9 1270.67   86.49
   1  -2   9 1113.69   85.39
   1  -2   9 1205.68   88.19
  -1  -2  -9 1170.58   92.29
   1  -2   9 1323.07   83.49
   1   2   9 1220.28   85.29
   1   2   9 1171.28   87.19
   1   2   9 1025.90   83.19
  -1   2  -9 1296.17   86.79
   1   2   9 1102.59   84.79
  -1   2  -9 1295.57   90.89
  -2  -2  -9 1560.74  115.79
   2  -2   9 1339.47  114.19
  -2  -2  -9 1452.45  105.89
   2  -2   9 1381.16  113.19
  -2  -2  -9 1490.45  105.09
  -2  -2  -9 1392.56  101.89
   2   2   9 1669.93  101.99
   2   2   9 1500.85  107.19
  -2   2  -9 1437.96  111.19
   2   2   9 1424.06  105.99
  -2   2  -9 1534.75  105.39
  -3  -2  -9  277.37   48.40
  -3  -2  -9  258.47   39.00
   3  -2   9  197.18   44.30
  -3  -2  -9  227.08   22.90
   3   2   9  272.07   43.00
  -4  -2  -9  474.35  110.19
   4  -2   9  442.96   88.19
   4   2   9  677.83   54.79
   4   2   9  545.05   74.19
   4  -3  -9   47.40   28.90
   4   3  -9    8.50   31.30
   4   3  -9   43.70    9.30
  -4   3   9   49.70   30.10
   3  -3  -9   48.40   25.20
   3  -3  -9   65.39   22.10
  -3  -3   9   67.49   13.50
  -3  -3   9   71.59   22.00
  -3  -3   9   27.70   27.20
   3   3  -9   44.60   11.50
   3   3  -9   46.70   25.00
  -2  -3   9 2285.87  156.28
   2  -3  -9 2123.49  155.88
   2  -3  -9 2062.79  157.88
  -2  -3   9 2331.27  157.98
   2  -3  -9 2339.37  157.18
   2   3  -9 2264.47  155.98
   2   3  -9 2333.67  160.68
  -2   3   9 2369.46  156.58
  -1  -3   9   48.30   12.90
   1  -3  -9   31.00   13.80
   1  -3  -9   31.00    7.40
   1  -3  -9   40.70   19.50
  -1  -3   9   38.90   14.70
  -1  -3   9   -2.40   23.10
   1  -3  -9   31.50   11.20
  -1   3   9   21.40   10.10
   1   3  -9   29.90   12.30
   1   3  -9   11.10   20.80
   0  -3  -9 4863.31  329.57
   0  -3  -9 4356.96  324.67
   0  -3   9 5071.49  326.17
   0  -3   9 5166.18  325.67
   0  -3   9 5019.40  324.97
   0  -3   9 4720.63  326.57
   0  -3  -9 4770.32  326.87
   0  -3  -9 4316.97  324.77
   0  -3   9 5160.18  329.47
   0  -3  -9 4663.23  325.27
   0   3  -9 4827.82  328.67
   0   3   9 5016.10  325.67
   0   3   9 4727.33  326.47
   0   3  -9 4424.96  326.57
   0   3   9 4929.01  328.67
   1  -3   9   76.49   14.50
  -1  -3  -9   69.69   13.90
   1  -3   9   67.79   29.50
  -1  -3  -9   12.80   26.00
  -1  -3  -9   71.49   17.20
  -1  -3  -9   33.40   15.70
   1  -3   9   68.59   33.50
  -1  -3  -9   49.99   12.40
   1   3   9   46.30   12.60
  -1   3  -9   55.29   22.60
  -1   3  -9   64.49   16.00
   1   3   9   54.79   20.10
   2  -3   9 1851.31  143.29
   2  -3   9 2109.89  149.79
  -2  -3  -9 2066.39  143.39
  -2  -3  -9 2232.68  156.18
  -2  -3  -9 2009.00  144.69
   2   3   9 2163.78  145.99
  -2   3  -9 2146.59  150.08
   2   3   9 1929.91  143.09
   2   3   9 2025.70  145.19
  -2   3  -9 1979.00  143.49
  -3  -3  -9   12.60   43.60
   3  -3   9   34.40   41.40
  -3  -3  -9   56.09   18.40
   3   3   9   32.70   28.50
  -4  -4   9  435.86   73.19
   4   4  -9  492.45   77.09
   4   4  -9  663.03   61.69
  -4   4   9  425.36   67.29
   3  -4  -9  474.45   57.79
   3  -4  -9  486.65   49.99
  -3  -4   9  507.35   42.10
   3   4  -9  464.05   55.39
   3   4  -9  421.96   52.59
   3   4  -9  437.36   38.70
   2  -4  -9  573.44   48.40
  -2  -4   9  567.34   45.20
   2  -4  -9  530.55   53.89
  -2  -4   9  599.74   40.70
   2   4  -9  553.24   44.60
   2   4  -9  537.55   52.89
  -2   4   9  558.24   45.40
   2   4  -9  496.75   55.89
   2   4  -9  536.15   39.20
   1  -4  -9  265.37   25.70
  -1  -4   9  295.77   30.60
   1  -4  -9  367.56   42.60
   1  -4  -9  262.27   30.60
  -1  -4   9  292.37   41.50
   1  -4  -9  315.77   32.00
  -1   4   9  303.87   30.70
   1   4  -9  301.37   24.50
   1   4  -9  334.67   42.00
   1   4  -9  278.87   30.90
   1   4  -9  292.47   34.20
   0  -4  -9    1.30   14.00
   0  -4   9    7.30   14.60
   0  -4   9  -36.80   29.50
   0  -4   9    7.20   19.90
   0  -4  -9  -11.70   25.80
   0  -4  -9    1.10   13.20
   0  -4  -9   13.70   11.50
   0   4   9   -2.70   22.30
   0   4  -9   11.20   20.90
   0   4  -9    3.60   14.60
   0   4  -9    5.80   12.40
  -1  -4  -9  122.19   28.00
  -1  -4  -9  132.09   27.70
  -1  -4  -9  110.49   13.40
   1  -4   9   63.99   33.40
   1  -4   9  174.78   36.30
   1  -4   9  165.28   26.80
  -1  -4  -9   70.09   32.10
  -1   4  -9  147.19   21.40
   1   4   9  145.89   25.60
  -1   4  -9  140.79   28.30
  -1   4  -9  133.19   16.60
   1   4   9  183.28   37.40
   2  -4   9 1003.50   83.99
   2  -4   9  868.61   77.59
  -2  -4  -9  785.92   65.79
  -2  -4  -9  775.72   71.59
  -2  -4  -9  805.62   87.59
  -2   4  -9 1003.20   79.69
   2   4   9  783.82   65.09
   2   4   9  831.62   72.49
  -2   4  -9  817.62   78.89
  -3  -4  -9  163.18   33.40
   3  -4   9  104.09   41.50
  -3  -4  -9   91.09   54.79
   3   4   9  110.59   37.10
   3  -5  -9   92.69   31.30
   3   5  -9   56.59   29.20
   3   5  -9   92.79   36.80
   2  -5  -9  286.47   26.90
   2  -5  -9  352.86   47.90
  -2  -5   9  333.17   34.60
  -2  -5   9  274.07   50.29
  -2  -5   9  321.97   33.30
   2   5  -9  407.96   49.50
   2   5  -9  296.17   43.50
   2   5  -9  273.07   32.40
  -2   5   9  415.56   66.29
   1  -5  -9 2155.08  151.08
   1  -5  -9 2044.20  153.78
   1  -5  -9 2191.18  152.48
  -1  -5   9 2211.48  162.78
   1   5  -9 2137.19  153.88
   1   5  -9 2212.98  154.18
  -1   5   9 2294.37  170.78
   1   5  -9 2387.36  157.98
   0  -5   9  776.62   67.19
   0  -5   9  707.63   70.69
   0  -5  -9  680.53   55.49
   0  -5   9  685.43   56.69
   0  -5  -9  675.83   57.29
   0  -5  -9  761.92   53.29
   0   5   9  707.03   67.69
   0   5  -9  683.43   57.59
   0   5  -9  728.73   55.19
   0   5   9  652.73   56.79
   1  -5   9 1038.60   83.59
  -1  -5  -9  929.11   74.89
  -1  -5  -9 1001.00   92.49
   1  -5   9  962.10   74.69
   1  -5   9  923.01   88.69
  -1  -5  -9  922.11   74.99
   1   5   9  972.80   81.99
  -1   5  -9 1058.79   83.69
  -1   5  -9  988.50   75.79
   1   5   9  969.20   75.19
   2  -5   9  167.68   38.00
   2  -5   9   84.99   43.40
  -2  -5  -9  144.89   28.60
  -2  -5  -9  105.59   46.90
   2   5   9  235.88   48.80
   2  -6  -9   59.29   31.30
   2   6  -9   80.59   27.60
  -2   6   9   56.69   46.20
   2   6  -9   24.50   25.40
   1  -6  -9  152.48   35.70
   1  -6  -9  105.19   19.40
  -1   6   9   81.29   35.90
   1   6  -9  119.29   28.80
   0  -6   9    8.10   36.60
   0  -6  -9   38.90   20.90
   0  -6   9   82.59   34.40
   0  -6   9   90.59   20.00
   0  -6  -9   45.00   19.60
   0  -6  -9   93.29   38.30
   0  -6  -9   48.40   13.40
   0   6   9   24.50   20.00
   0   6  -9   28.70   19.40
   0   6  -9   53.69   26.90
   0   6   9   76.79   33.50
   0   6  -9   45.70   18.80
   1  -6   9  451.45   62.89
  -1  -6  -9  444.96   70.49
   1  -6   9  295.07   60.99
  -1  -6  -9  370.06   44.70
  -1   6  -9  313.57   56.19
   1   6   9  402.86   58.19
   4   0 -10 2036.60  126.49
   4   0 -10 1896.31  131.79
   4   0 -10 1571.04  123.29
  -4   0  10 1763.82  131.69
   4   0 -10 1725.23  124.59
   3   0 -10   28.20   19.60
   3   0 -10  -15.30   12.80
  -3   0  10   -3.10   21.40
   3   0 -10   -0.80    9.70
   3   0 -10    7.50    9.80
   3   0 -10   -2.30    6.50
   2   0 -10 5952.70  419.26
   2   0 -10 6294.87  419.36
   2   0 -10 5786.02  416.46
   2   0 -10 6453.65  416.16
   2   0 -10 5895.11  415.66
  -2   0  10 6128.69  420.56
   2   0 -10 6807.42  419.86
  -2   0  10 6125.99  416.16
   1   0 -10   -2.50   11.80
   1   0 -10   -1.10    7.20
   1   0 -10   -5.00    9.90
   1   0 -10   -4.60   15.70
   0   0 -10  925.91   68.89
   0   0 -10  935.81   69.19
   0   0 -10 1003.70   71.49
   0   0 -10  919.81   68.29
   0   0 -10  818.82   65.49
   0   0  10  900.81   67.69
  -1   0 -10   -9.70   19.40
   1   0  10   -5.10   19.20
  -1   0 -10   -2.40   11.60
  -1   0 -10   -5.10   13.50
  -2   0 -10  967.40   69.79
   2   0  10  779.92   71.79
  -2   0 -10  976.30   78.79
  -3   0 -10  -31.20   21.90
   3   0  10  -13.40   26.60
  -3   0 -10    0.20   15.50
  -4   0 -10  416.26   84.09
  -4   0 -10  287.67   47.10
   4   0  10  314.97   78.89
   4  -1 -10  201.48   29.50
  -4  -1  10  186.78   39.80
   4  -1 -10  217.58   43.50
   4  -1 -10  150.18   20.00
   4   1 -10  146.59   15.30
  -4   1  10  176.78   33.20
   4   1 -10  151.88   20.20
   4   1 -10  212.68   43.00
  -3  -1  10   25.60   20.70
   3  -1 -10   14.10   13.40
  -3  -1  10   24.50   14.80
   3  -1 -10   16.10   10.50
   3  -1 -10   33.70   21.40
   3   1 -10   10.00   21.80
   3   1 -10    8.70    9.20
  -3   1  10   -3.10   23.90
   2  -1 -10 1205.88   79.19
   2  -1 -10 1166.28   80.49
   2  -1 -10 1163.28   78.19
   2  -1 -10 1024.70   76.69
  -2  -1  10 1073.49   81.19
  -2  -1  10 1106.99   78.09
   2   1 -10 1192.68   78.59
   2   1 -10 1184.38   78.79
   2   1 -10  978.50   76.09
  -2   1  10  935.91   78.79
   2   1 -10  894.41   80.09
   1  -1 -10  623.64   47.20
   1  -1 -10  548.55   47.90
   1  -1 -10  576.74   45.50
  -1  -1  10  505.75   48.60
   1  -1 -10  639.64   48.10
   1   1 -10  561.24   51.09
   1   1 -10  530.95   42.10
  -1   1  10  669.63   50.39
   1   1 -10  620.44   48.00
   0  -1 -10 6905.61  461.55
   0  -1 -10 6215.98  460.65
   0   1 -10 6344.57  461.15
   0   1  10 7685.43  458.65
  -1  -1 -10 1977.60  135.09
  -1  -1 -10 1843.22  135.09
   1  -1  10 2108.39  132.59
  -1  -1 -10 1883.51  136.09
  -1  -1 -10 1897.11  137.39
  -1   1 -10 1819.62  137.69
  -1   1 -10 1963.00  136.79
   1   1  10 1696.93  133.19
  -1   1 -10 2062.89  133.69
  -1   1 -10 1839.22  135.39
   2  -1  10 2667.23  158.18
  -2  -1 -10 2093.79  160.98
  -2  -1 -10 2563.24  162.08
  -2  -1 -10 2164.58  161.08
  -2  -1 -10 2417.26  167.48
   2   1  10 2166.98  161.78
  -2   1 -10 2316.07  165.88
  -2   1 -10 2056.99  159.58
  -2   1 -10 2119.89  159.68
  -2   1 -10 2369.96  162.08
   2   1  10 2183.58  159.68
  -2   1 -10 2537.85  167.58
  -3  -1 -10  245.18   30.90
  -3  -1 -10  278.27   56.19
  -3  -1 -10  209.28   44.50
   3  -1  10  189.38   44.80
  -3   1 -10  177.68   35.30
   3   1  10  263.17   45.40
  -3   1 -10  266.07   57.79
  -4  -1 -10   63.29   22.60
   4  -1  10   78.39   61.79
   4  -1  10  -56.09   69.79
  -4  -2  10  413.26   50.09
   4  -2 -10  447.66   43.80
   4  -2 -10  402.66   33.10
   4  -2 -10  404.56   52.69
  -4  -2  10  341.77   47.60
   4   2 -10  388.76   51.29
  -4   2  10  303.97   56.09
   3  -2 -10 1718.63  127.99
  -3  -2  10 1818.72  130.99
   3  -2 -10 2093.29  138.59
   3   2 -10 1938.91  126.09
  -3   2  10 1547.35  134.39
  -2  -2  10 1354.76   96.49
  -2  -2  10 1127.59   97.29
   2  -2 -10 1280.27   94.49
   2  -2 -10 1355.76   95.79
  -2  -2  10 1226.78   93.89
   2  -2 -10 1507.15   99.49
  -2   2  10 1266.17   93.49
  -2   2  10 1410.86  101.69
   2   2 -10 1416.26   93.79
   2   2 -10 1290.97   98.89
  -1  -2  10 2157.88  153.98
   1  -2 -10 2305.37  153.68
  -1  -2  10 2186.88  153.48
   1  -2 -10 2110.79  152.58
  -1  -2  10 1970.20  155.58
   1  -2 -10 2040.20  153.38
   1   2 -10 2423.46  155.88
   1   2 -10 2336.87  153.78
  -1   2  10 2568.24  156.78
  -1   2  10 1990.30  152.18
   0  -2 -10  277.67   30.10
   0  -2  10  238.38   25.40
   0  -2  10  255.87   27.90
   0  -2 -10  218.08   44.90
   0  -2  10  264.57   28.90
   0  -2  10  294.27   37.30
   0   2  10  249.18   26.00
   0   2 -10  268.87   30.50
   0   2  10  260.27   24.70
   1  -2  10  116.69   23.40
  -1  -2 -10  111.99   21.70
  -1  -2 -10   86.29   25.80
   1  -2  10  110.89   16.30
  -1  -2 -10  122.59   20.60
   1  -2  10  122.89   18.30
   1   2  10  120.99   32.50
  -1   2 -10  106.99   27.80
   1   2  10   88.19   20.20
  -1   2 -10  103.19   18.30
   2  -2  10  487.65   44.60
  -2  -2 -10  500.45   41.00
  -2  -2 -10  517.25   44.80
  -2  -2 -10  604.14   46.00
  -2  -2 -10  540.45   61.39
   2   2  10  489.35   49.30
   2   2  10  527.45   48.40
  -2   2 -10  443.36   56.89
  -2   2 -10  475.75   37.10
  -2   2 -10  497.95   61.29
  -3  -2 -10  432.46   39.70
  -3  -2 -10  368.36   32.80
  -3  -2 -10  387.96   66.49
   3   2  10  423.26   52.19
   4  -2  10   87.29   54.99
  -4   2 -10   -7.60   36.90
   4  -3 -10   48.50   24.60
   4  -3 -10  -15.10   26.80
   4   3 -10   -7.50    9.00
  -4   3  10  -42.90   30.90
   4   3 -10   56.99   28.90
  -3  -3  10   58.29   24.40
  -3  -3  10   57.19   13.90
   3  -3 -10   12.60   21.70
   3  -3 -10   47.40   21.80
   3   3 -10   46.00   12.00
   3   3 -10   39.40   24.60
  -2  -3  10   39.30   20.60
   2  -3 -10   25.30   11.30
   2  -3 -10   26.40   18.00
  -2  -3  10   41.30   13.10
   2  -3 -10   44.60   20.20
  -2   3  10   46.30   13.60
   2   3 -10   28.80   12.10
   2   3 -10   37.20   24.20
  -2   3  10   25.90   27.10
  -1  -3  10 2437.96  163.38
   1  -3 -10 2206.58  162.08
   1  -3 -10 2497.15  165.38
  -1  -3  10 2225.38  167.68
  -1  -3  10 2288.17  162.78
   1  -3 -10 2391.66  163.28
  -1   3  10 2287.47  158.88
  -1   3  10 2473.55  167.68
   1   3 -10 2379.76  168.78
   1   3 -10 2389.46  166.88
  -1   3  10 2285.87  162.58
   0  -3  10   68.99   15.90
   0  -3 -10   45.40   14.60
   0  -3  10   69.69   15.50
   0  -3 -10   58.09   14.50
   0  -3 -10   36.80   22.50
   0  -3 -10   65.09   13.10
   0  -3  10   75.99   16.30
   0   3 -10   44.20   25.30
   0   3 -10   44.40   14.20
   0   3  10   39.30   22.50
   0   3  10   45.50   12.00
   1  -3  10 2645.54  192.58
  -1  -3 -10 2706.03  197.78
   1  -3  10 2632.04  191.58
   1  -3  10 2905.01  188.58
  -1  -3 -10 2467.15  190.38
   1   3  10 2827.82  193.48
   1   3  10 2752.42  190.98
  -1   3 -10 3221.68  196.88
   1   3  10 2725.03  191.48
  -1   3 -10 2844.32  192.48
  -2  -3 -10   13.80   15.40
   2  -3  10   40.10   22.60
  -2  -3 -10  -12.60   36.00
   2  -3  10   -2.80   29.00
  -2   3 -10   17.50   15.60
   2   3  10   -0.30   22.20
   2   3  10   29.50   22.90
   3  -3  10  769.42   88.09
  -3  -3 -10  800.52   90.79
   3   3  10  777.42   74.49
   3   3  10  893.51   70.49
   3  -4 -10 1082.79   93.89
  -3  -4  10 1362.16   96.49
   3  -4 -10 1195.08   93.09
   3   4 -10 1186.38   96.49
   3   4 -10 1237.68  103.49
   3   4 -10 1249.88   88.99
   2  -4 -10  614.14   56.09
   2  -4 -10  657.03   59.59
  -2  -4  10  655.63   52.99
   2   4 -10  645.64   64.59
   2   4 -10  656.63   51.89
  -2   4  10  807.82   73.49
   2   4 -10  628.54   60.09
   1  -4 -10  599.94   50.19
  -1  -4  10  477.85   64.59
   1  -4 -10  645.34   50.09
   1  -4 -10  593.94   44.50
  -1  -4  10  660.73   50.29
  -1   4  10  508.95   61.39
   1   4 -10  640.34   53.99
  -1   4  10  618.14   49.99
   1   4 -10  641.84   60.39
   1   4 -10  653.63   50.49
   0  -4  10  388.96   42.30
   0  -4  10  389.66   37.40
   0  -4 -10  373.66   37.40
   0  -4 -10  374.56   34.10
   0  -4 -10  323.27   33.40
   0  -4 -10  336.27   50.19
   0   4 -10  347.27   37.60
   0   4  10  366.46   36.30
   0   4 -10  375.06   34.80
   0   4  10  331.07   48.60
   0   4 -10  382.56   49.30
   1  -4  10    1.40   22.90
  -1  -4 -10   -5.60   23.20
  -1  -4 -10   -8.60    7.60
   1  -4  10   19.30   13.10
  -1  -4 -10    2.70   17.00
  -1  -4 -10   -6.30   15.60
  -1   4 -10    0.60   15.70
  -1   4 -10    7.00    9.80
   1   4  10   11.10   14.40
   1   4  10   23.60   34.30
  -1   4 -10  -18.80   28.80
   2  -4  10   55.79   36.40
  -2  -4 -10    6.70   22.30
  -2  -4 -10  -12.80   36.60
  -2  -4 -10    4.90   16.40
   2  -4  10    5.30   34.20
   2   4  10  -23.30   29.70
   2   4  10   40.80   26.90
  -3  -4 -10   30.60   64.29
  -3  -4 -10  136.39   33.20
   3  -4  10  262.37   68.19
   3  -5 -10   58.09   28.20
   3  -5 -10  -20.80   24.70
   3   5 -10   11.90   29.10
   3   5 -10  -17.10   29.50
   2  -5 -10   34.20   26.00
   2  -5 -10   -5.00   19.70
  -2   5  10   16.30   36.80
   2   5 -10   -8.50   23.40
   2   5 -10   61.29   29.00
   1  -5 -10  286.67   28.50
   1  -5 -10  312.27   34.60
   1  -5 -10  285.27   35.30
  -1  -5  10  264.07   49.40
  -1   5  10  272.37   52.79
   1   5 -10  301.47   39.30
   1   5 -10  364.06   48.80
  -1   5  10  272.77   34.70
   1   5 -10  311.17   35.60
   0  -5 -10 1553.44  104.59
   0  -5  10 1371.96  116.39
   0  -5 -10 1407.96  105.49
   0  -5  10 1465.05  107.99
   0  -5  10 1554.34  113.39
   0  -5 -10 1427.46  108.29
   0   5 -10 1469.55  108.39
   0   5  10 1398.86  107.79
   0   5  10 1489.45  115.59
   0   5 -10 1707.73  114.59
   0   5 -10 1514.75  105.69
  -1  -5 -10  233.38   36.60
  -1  -5 -10  242.78   57.59
   1  -5  10  268.97   48.70
   1  -5  10  301.77   36.10
  -1  -5 -10  189.08   40.30
   1  -5  10  173.68   45.70
  -1   5 -10  215.58   35.30
  -1   5 -10  317.47   27.10
  -1   5 -10  247.38   52.89
   1   5  10  263.37   35.80
   1   5  10  294.57   48.50
   2  -5  10  817.42   85.09
  -2  -5 -10  654.83   87.09
   2  -5  10  711.03   78.89
  -2  -5 -10  702.73   64.39
   2   5  10  800.02   71.39
  -2   5 -10  661.63   78.49
   2  -6 -10  920.31   78.09
   2  -6 -10  670.73   66.29
  -2  -6  10  707.43   91.39
   2   6 -10  921.91   77.19
   2   6 -10  788.72   73.19
   1  -6 -10   60.59   34.90
   1  -6 -10   -7.90   17.90
   1  -6 -10    3.90   15.20
  -1  -6  10   18.60   33.60
  -1   6  10   37.10   37.10
   1   6 -10  -15.20   22.60
   1   6 -10    8.30   29.00
   0  -6 -10  268.37   34.80
   0  -6 -10  291.47   37.60
   0  -6 -10  244.58   37.30
   0   6 -10  262.07   53.49
   0   6 -10  189.08   32.40
   0   6 -10  315.27   36.00
   0   6  10  290.47   56.59
   0   6  10  219.68   43.10
   1  -6  10   19.80   35.40
   1  -6  10  -86.39   80.59
  -1  -6 -10   39.10   23.00
  -1  -6 -10   67.59   53.69
  -1   6 -10  -19.60   34.80
  -4   0  11   -1.50   26.00
   4   0 -11   20.90   13.20
   4   0 -11   38.10   27.90
   4   0 -11   26.50   13.40
   3   0 -11 2266.57  139.59
   3   0 -11 2224.38  144.59
  -3   0  11 2057.19  145.79
   3   0 -11 1831.42  136.79
   3   0 -11 1867.21  137.89
   3   0 -11 1908.61  140.39
  -2   0  11   18.10    7.40
   2   0 -11   14.70    5.60
   2   0 -11    5.70    6.90
   2   0 -11    1.20   17.70
   2   0 -11   -2.20   14.50
   2   0 -11    9.80   13.10
   1   0 -11 9366.86  649.54
   1   0 -11 9999.00  653.33
   1   0 -11 9587.14  653.13
   0   0 -11   -0.40   14.60
   0   0 -11   12.60   14.80
   0   0  11   29.80   15.00
   0   0 -11  -11.50   11.50
   0   0  11    0.40   15.90
   0   0 -11   -7.50   20.20
   0   0 -11   -4.80   14.90
  -1   0 -11 1489.95  118.49
  -1   0 -11 1666.33  117.69
   1   0  11 1613.94  113.79
  -1   0 -11 1736.03  116.19
   1   0  11 1503.45  112.59
   2   0  11    1.00   23.30
  -2   0 -11  -27.20   24.80
   2   0  11   -2.70   15.40
  -2   0 -11   -2.90   15.50
  -2   0 -11    9.00   23.20
  -3   0 -11  172.08   33.20
   3   0  11  197.58   35.10
  -3   0 -11  220.68   32.40
  -3   0 -11  209.68   42.60
  -4  -1  11  203.38   44.10
   4  -1 -11  194.28   21.20
   4   1 -11  287.07   46.40
  -4   1  11  161.88   35.50
   4   1 -11  202.88   24.80
  -3  -1  11  773.12   74.49
  -3  -1  11  683.73   56.19
   3  -1 -11  706.13   55.39
   3  -1 -11  799.72   56.19
   3  -1 -11  834.22   79.29
  -3   1  11  618.94   66.69
   3   1 -11  692.13   52.89
   3   1 -11  791.22   55.09
   3   1 -11  718.63   64.59
   2  -1 -11   28.50   12.80
   2  -1 -11   17.80   26.30
  -2  -1  11   29.50   14.50
   2  -1 -11   17.30   12.60
  -2  -1  11   -1.20   20.80
   2  -1 -11   28.50   17.70
   2   1 -11  -11.50   20.40
   2   1 -11   23.40   14.00
   2   1 -11   40.30   17.80
  -2   1  11   27.10   13.60
   1  -1 -11  273.17   33.10
   1  -1 -11  282.27   29.80
   1  -1 -11  344.17   32.20
   1  -1 -11  266.47   34.30
   1   1 -11  306.67   32.90
   1   1 -11  257.87   24.20
  -1   1  11  328.37   36.70
   1   1 -11  268.87   39.00
  -1   1  11  306.67   22.00
   0  -1  11  196.68   30.50
   0  -1 -11  240.68   43.20
   0  -1 -11  252.57   29.60
   0  -1 -11  257.77   33.30
   0  -1 -11  202.68   31.70
   0   1  11  273.97   25.70
   0   1  11  194.98   31.80
   0   1  11  270.17   25.10
   0   1 -11  263.97   39.90
   0   1 -11  223.98   31.80
   0   1 -11  227.38   28.40
   1  -1  11 5083.49  303.67
  -1  -1 -11 4443.46  305.67
  -1  -1 -11 4679.23  307.47
  -1   1 -11 4502.65  308.27
   1   1  11 3887.51  303.57
  -1   1 -11 4093.09  309.97
  -1   1 -11 4532.45  306.57
  -2  -1 -11  755.42   57.19
  -2  -1 -11  636.84   67.19
   2  -1  11  793.72   62.09
  -2  -1 -11  653.63   57.29
   2  -1  11  784.72   52.89
  -2   1 -11  686.43   60.19
   2   1  11  594.74   55.89
  -2   1 -11  707.83   68.29
  -2   1 -11  652.53   58.69
   2   1  11  582.64   59.19
  -3  -1 -11 1149.29  100.59
   3  -1  11 1274.57   91.99
  -3  -1 -11  904.71   83.79
   3  -1  11 1103.69  102.29
   3  -1  11 1253.97   78.89
  -3  -1 -11  981.50   83.99
   3   1  11 1094.69   83.69
   3   1  11  970.50   90.09
  -3   1 -11 1203.38  101.49
  -3   1 -11 1178.78   84.09
   4  -2 -11  717.43   63.69
  -4  -2  11  543.65   57.09
  -4  -2  11  576.54   61.89
   4  -2 -11  682.73   54.69
   4  -2 -11  588.34   46.10
   4   2 -11  551.24   62.19
  -4   2  11  494.15   67.29
   4   2 -11  553.64   44.30
   3  -2 -11  671.83   50.19
   3  -2 -11  581.64   52.49
   3  -2 -11  723.73   58.29
  -3  -2  11  639.14   58.09
  -3  -2  11  566.24   56.59
   3   2 -11  664.13   48.60
   3   2 -11  547.85   62.69
   2  -2 -11 3046.00  203.48
   2  -2 -11 2947.01  203.78
   2  -2 -11 2900.21  204.18
  -2  -2  11 2657.03  203.48
  -2  -2  11 3084.69  205.88
   2   2 -11 3167.88  203.98
   2   2 -11 2915.71  206.48
  -1  -2  11 1382.96  107.49
   1  -2 -11 1662.93  109.39
   1  -2 -11 1374.76  108.39
   1  -2 -11 1441.46  107.79
  -1  -2  11 1461.55  108.99
   1   2 -11 1692.13  112.79
   1   2 -11 1636.44  109.19
  -1   2  11 1338.37  106.69
  -1   2  11 1689.23  111.99
   0  -2 -11 1869.51  129.19
   0  -2  11 1676.73  123.39
   0  -2  11 1781.82  123.39
   0  -2 -11 1670.53  125.59
   0  -2  11 1587.04  120.89
   0  -2 -11 1865.41  123.89
   0   2  11 1534.25  122.19
   0   2  11 1726.03  120.69
   0   2 -11 1867.41  125.39
   0   2 -11 2010.40  128.69
   0   2  11 1667.73  120.89
   1  -2  11  461.65   40.90
   1  -2  11  451.65   42.40
  -1  -2 -11  486.95   52.69
   1   2  11  431.26   46.30
  -1   2 -11  552.14   46.70
   1   2  11  469.25   42.70
  -1   2 -11  441.76   55.19
  -2  -2 -11  273.37   31.90
   2  -2  11  211.58   30.30
  -2  -2 -11  176.78   30.80
  -2  -2 -11  209.18   38.90
   2  -2  11  184.58   36.30
  -2   2 -11  221.28   32.10
   2   2  11  198.68   37.00
  -2   2 -11  200.18   40.60
   2   2  11  225.78   36.70
  -2   2 -11  176.98   23.70
   3  -2  11  -14.10   40.10
  -3  -2 -11    3.20   12.60
  -3  -2 -11  -17.20   35.90
   3   2  11   91.59   33.10
   3   2  11   24.30   28.60
   4  -3 -11  500.65   67.49
  -4  -3  11  563.14   77.59
   4  -3 -11  644.34   57.49
   4   3 -11  422.86   86.59
   4   3 -11  670.83   64.79
   3  -3 -11   21.50   25.40
   3  -3 -11   27.00   21.80
  -3  -3  11   11.10   25.40
  -3  -3  11   31.10   14.50
   3   3 -11   28.90   26.40
   3   3 -11   14.70   12.10
  -2  -3  11   -3.40   21.90
   2  -3 -11    7.90   13.50
   2  -3 -11    2.30   18.40
   2  -3 -11   29.70   19.80
  -2  -3  11   11.10   12.80
  -2   3  11   18.90   13.80
   2   3 -11    2.40   12.40
   2   3 -11   -3.60   24.60
  -2   3  11  -12.10   29.20
   1  -3 -11   25.20   15.40
  -1  -3  11   40.00   14.80
   1  -3 -11   16.20   16.60
  -1  -3  11   32.00   19.10
   1  -3 -11   18.10   21.80
  -1   3  11   29.30   12.90
   1   3 -11   25.00   14.30
  -1   3  11   -7.30   23.10
   1   3 -11   30.80   26.60
   0  -3 -11 1499.55  121.39
   0  -3 -11 1665.33  126.79
   0  -3  11 1671.93  121.19
   0  -3  11 1938.61  122.39
   0  -3 -11 1891.01  124.29
   0  -3  11 1779.72  123.59
   0  -3  11 1853.71  129.09
   0   3 -11 1677.13  128.09
   0   3  11 1579.54  125.89
   0   3  11 1687.23  122.79
   0   3  11 1520.55  120.49
   0   3 -11 1918.01  124.49
   0   3  11 1834.32  119.99
   1  -3  11  -15.90   12.20
   1  -3  11   15.30   15.10
  -1  -3 -11   -8.50   11.40
   1  -3  11  -21.00   19.70
   1  -3  11   34.90   29.80
  -1  -3 -11  -27.50   18.00
  -1  -3 -11  -11.30   15.90
  -1  -3 -11  -32.60   25.40
  -1   3 -11   -5.50   18.90
   1   3  11    0.20   21.60
  -1   3 -11   -3.90   29.00
   1   3  11    6.70   10.60
   1   3  11    3.80   18.30
   2  -3  11 1258.97  107.59
  -2  -3 -11 1325.37   91.89
  -2  -3 -11 1349.36  111.99
  -2  -3 -11 1407.86   99.89
  -2   3 -11 1537.55  113.29
   2   3  11 1345.87  100.89
   2   3  11 1188.28  103.99
  -3  -3 -11  -13.10   39.50
   3  -3  11   -0.30   44.50
   3   3  11   27.10   30.10
   3  -4 -11  102.29   28.00
   3  -4 -11  115.89   28.30
   3   4 -11   63.09   34.00
   3   4 -11  116.49   31.70
  -2  -4  11 1988.00  139.49
   2  -4 -11 2010.70  137.89
  -2  -4  11 1922.01  136.19
  -2  -4  11 1695.83  147.39
   2  -4 -11 2095.99  139.69
   2   4 -11 1836.32  135.49
   2   4 -11 1915.71  143.29
   1  -4 -11  875.71   67.79
   1  -4 -11  737.63   60.19
   1  -4 -11  733.73   59.09
  -1  -4  11  783.82   62.99
  -1  -4  11  669.13   52.49
   1   4 -11  749.33   63.09
   1   4 -11  732.13   59.99
   1   4 -11  722.73   69.19
  -1   4  11  710.73   58.89
  -1   4  11  743.03   53.79
   0  -4 -11  850.11   66.59
   0  -4 -11  759.62   61.59
   0  -4 -11  814.92   75.69
   0  -4  11  865.31   65.69
   0  -4 -11  872.41   63.29
   0  -4  11  853.71   67.89
   0   4 -11  886.81   64.09
   0   4  11  839.92   64.79
   0   4  11  735.83   79.59
   0   4 -11  788.32   74.19
  -1  -4 -11  215.18   33.80
  -1  -4 -11  196.38   31.70
  -1  -4 -11  150.98   37.70
   1  -4  11  190.78   41.90
   1  -4  11  282.77   55.59
   1   4  11  226.88   30.70
   1   4  11  243.18   45.00
  -1   4 -11  211.88   22.30
  -1   4 -11  250.77   35.00
  -1   4 -11  254.67   39.40
   1   4  11  160.38   34.80
  -2  -4 -11   10.40   22.50
   2  -4  11  -24.20   31.40
  -2  -4 -11  -30.90   35.10
   2  -4  11   70.19   42.00
   2   4  11   44.00   25.60
  -3  -4 -11  -59.39   44.00
   3  -4  11   86.49   51.09
   3  -5 -11   59.09   27.70
  -3   5  11  -13.60   48.10
   3   5 -11   90.39   47.20
   3   5 -11  121.89   35.00
   2  -5 -11   35.40   28.10
   2  -5 -11   -2.70   22.10
   2   5 -11   12.50   30.80
   2   5 -11   -6.10   26.20
  -2   5  11   17.40   36.40
   1  -5 -11   60.69   31.70
   1  -5 -11    5.20   17.40
  -1  -5  11   45.30   17.90
   1  -5 -11    4.80   12.20
  -1  -5  11  -19.80   22.80
   1   5 -11   -7.60   17.50
  -1   5  11    3.40   15.70
   1   5 -11    0.70   28.50
   1   5 -11  -17.30   21.50
  -1   5  11  -11.50   32.20
   0  -5 -11  372.66   38.60
   0  -5  11  442.06   43.20
   0  -5 -11  387.76   48.70
   0  -5 -11  496.45   59.59
   0  -5 -11  387.66   44.90
   0   5 -11  414.16   44.40
   0   5 -11  454.75   58.29
   0   5  11  441.16   56.59
   0   5 -11  359.56   39.70
   0   5  11  376.36   42.50
  -1  -5 -11  561.24   53.59
   1  -5  11  531.85   75.59
   1  -5  11  621.84   63.79
  -1  -5 -11  638.84   75.79
  -1  -5 -11  629.44   58.19
   1  -5  11  568.04   64.79
  -1   5 -11  654.53   57.19
  -1   5 -11  682.13   71.09
   1   5  11  632.44   63.79
  -2  -5 -11   92.19   25.60
   2  -5  11   77.79   38.70
   2   5  11   39.40   30.90
   2   5  11  207.88   57.29
   1  -6 -11  787.92   67.19
   1   6 -11  824.52   72.49
  -1   6  11  875.81   84.79
   1   6 -11  947.81   81.69
   0  -6 -11   47.90   36.90
   0  -6 -11   23.40   18.70
   0   6 -11    7.90   34.90
   0   6  11   43.00   33.30
   0   6 -11    7.50   28.30
  -1  -6 -11  301.47   41.90
   4   0 -12   69.29   13.50
  -4   0  12   16.10   30.60
   4   0 -12  112.99   31.70
   3   0 -12   23.90   11.60
   3   0 -12    0.30   11.70
   3   0 -12   29.30   23.20
   3   0 -12    5.10    8.40
   2   0 -12 1492.55  118.39
   2   0 -12 1654.93  111.59
   2   0 -12 1795.02  117.79
  -2   0  12 1430.46  111.49
   2   0 -12 1828.92  117.49
   2   0 -12 1671.73  111.59
   1   0 -12   13.40   21.70
   1   0 -12   -2.80   20.00
   1   0 -12  -13.70    9.30
   1   0 -12   -9.00   11.50
   1   0 -12    7.80   15.80
  -1   0  12  -13.00   17.80
   0   0 -12 7042.10  499.65
   0   0 -12 7709.63  497.15
   0   0 -12 7240.68  498.15
  -1   0 -12    7.40   17.30
   1   0  12   -2.00   15.40
  -1   0 -12  -14.70   21.50
   1   0  12    9.30   17.10
  -1   0 -12   20.40    9.70
  -2   0 -12 1571.44  112.29
   2   0  12 1502.75  113.29
  -2   0 -12 1666.33  120.09
  -2   0 -12 1643.24  113.69
   2   0  12 1368.46  109.39
  -3   0 -12  -42.80   34.90
   3   0  12    5.80   29.10
   4  -1 -12  761.02   66.79
   4  -1 -12  623.64   52.09
  -4  -1  12  610.24   65.59
   4   1 -12  688.13   66.89
  -4   1  12  492.35   70.49
  -3  -1  12  753.82   66.99
   3  -1 -12  740.23   55.09
  -3  -1  12  625.14   55.39
   3  -1 -12  772.62   56.29
   3   1 -12  768.42   55.69
   3   1 -12  695.23   64.79
  -2  -1  12 1102.19   89.39
   2  -1 -12 1355.56   93.49
   2  -1 -12 1291.17   88.09
   2  -1 -12 1433.36   91.49
  -2  -1  12 1164.48   94.19
   2  -1 -12 1295.27   91.09
  -2   1  12 1234.28   96.49
  -2   1  12 1055.39   89.99
   2   1 -12 1205.98   85.79
   2   1 -12 1273.17   90.99
   2   1 -12 1428.16   91.19
   2   1 -12 1104.59   94.19
   1  -1 -12    5.70   14.30
   1  -1 -12   26.50   14.10
  -1   1  12    7.00   20.50
   1   1 -12   39.30   13.80
  -1   1  12   47.40   10.40
   0  -1 -12  -18.70   17.20
   0  -1  12   51.29   22.90
   0  -1 -12    1.80   16.10
   0  -1 -12    2.50   15.80
   0  -1 -12   -0.50   20.20
   0  -1  12  -16.60   16.90
   0   1 -12    1.80   17.50
   0   1  12   -8.00   17.80
   0   1 -12   42.80   23.20
   0   1 -12  -10.50   15.10
   0   1  12    6.60   13.00
  -1  -1 -12  168.48   38.50
   1  -1  12  217.48   29.20
  -1  -1 -12  243.88   30.90
  -1  -1 -12  180.48   39.90
  -1   1 -12  197.88   34.60
  -1   1 -12  191.08   38.00
   1   1  12  141.19   30.30
  -1   1 -12  233.78   27.00
   1   1  12  164.38   25.40
  -2  -1 -12 1583.84  117.49
  -2  -1 -12 1744.03  116.89
   2  -1  12 1853.81  113.09
  -2  -1 -12 1524.25  122.39
   2   1  12 1484.35  117.09
  -2   1 -12 1569.14  127.29
  -2   1 -12 1565.44  114.99
  -2   1 -12 1642.44  118.19
  -2   1 -12 1668.73  123.39
   2   1  12 1376.86  114.59
   3  -1  12  139.29   44.60
  -3  -1 -12   87.79   40.70
  -3   1 -12   58.29   40.00
   3   1  12  105.89   33.00
   4  -2 -12   24.50   31.20
  -4  -2  12    1.00   28.80
  -4  -2  12    8.40   24.20
   4   2 -12   60.79   29.30
  -3  -2  12  900.71   74.49
   3  -2 -12  938.31   74.69
   3  -2 -12  860.21   68.09
   3  -2 -12  896.91   66.99
   3   2 -12  794.32   76.49
   3   2 -12  904.11   65.89
   2  -2 -12  624.94   74.59
  -2  -2  12  744.13   66.79
   2  -2 -12  784.22   61.29
   2  -2 -12  807.82   64.79
   2   2 -12  788.02   66.29
  -2   2  12  902.21   73.59
   2   2 -12  821.42   60.99
  -1  -2  12 3379.46  262.07
  -1  -2  12 3554.44  259.07
  -1  -2  12 3772.42  259.97
   1  -2 -12 3678.23  258.77
   1  -2 -12 4096.19  260.87
   1   2 -12 4184.88  260.77
   0  -2  12  904.91   70.59
   0  -2 -12 1085.69   72.29
   0  -2  12  800.22   66.69
   0  -2  12  910.91   70.49
   0  -2 -12  836.12   73.79
   0  -2 -12 1032.80   73.29
   0   2  12  835.62   73.19
   0   2  12  865.51   66.59
   0   2 -12 1039.70   73.79
   0   2  12  901.51   66.49
   1  -2  12 1002.30   83.59
   1  -2  12 1172.18   87.09
  -1  -2 -12 1142.19   84.29
  -1  -2 -12 1112.99   85.89
   1  -2  12 1039.00   82.29
  -1  -2 -12 1156.08   90.29
  -1   2 -12 1164.98   86.69
  -1   2 -12 1180.58   93.39
   1   2  12 1096.09   82.89
  -2  -2 -12  211.88   39.90
  -2  -2 -12  209.78   27.90
   2  -2  12  173.38   20.40
   2  -2  12  204.58   53.59
  -2  -2 -12  139.49   24.60
   2   2  12  162.58   38.90
  -2   2 -12  131.79   73.49
  -2   2 -12  219.78   38.40
   2   2  12  212.38   38.40
  -3  -2 -12   63.59   42.20
   3  -2  12  108.99   42.80
   3   2  12  108.59   31.60
  -4  -3  12   22.70   34.10
   4  -3 -12   17.60   31.80
  -4  -3  12  -51.59   36.90
   4   3 -12   76.79   30.90
   3  -3 -12 1384.56  100.69
   3  -3 -12 1403.46  102.29
  -3  -3  12 1303.87  104.69
  -3   3  12 1208.08  112.79
   3   3 -12 1262.77   96.39
   3   3 -12 1504.85  106.49
   2  -3 -12   29.80   21.50
  -2  -3  12   -2.80   25.90
  -2  -3  12   26.70   14.30
   2  -3 -12   24.80   20.60
  -2   3  12   18.40   30.10
   2   3 -12    1.40   13.20
  -1  -3  12   39.50   22.10
   1  -3 -12   47.60   23.70
  -1  -3  12   74.29   17.70
   1  -3 -12   42.70   17.10
   1  -3 -12   45.10   18.70
   1   3 -12   63.69   19.60
  -1   3  12   43.30   13.00
   1   3 -12   42.20   26.90
  -1   3  12   35.80   26.90
   0  -3  12   98.29   19.70
   0  -3 -12   76.19   21.80
   0  -3 -12   79.59   19.60
   0  -3  12   43.50   17.50
   0  -3 -12   67.49   28.40
   0  -3  12   95.79   31.90
   0  -3  12   56.79   19.50
   0   3  12   59.39   27.00
   0   3  12   69.79   15.30
   0   3 -12   20.40   29.30
   0   3  12   98.39   18.10
   0   3 -12   80.49   22.00
  -1  -3 -12  981.90   75.09
   1  -3  12  968.10   68.49
   1  -3  12  958.90   72.99
   1  -3  12  805.82   74.69
  -1  -3 -12  879.01   81.89
   1   3  12  904.41   71.59
  -1   3 -12 1027.40   75.59
  -1   3 -12 1132.39   98.09
   1   3  12  810.02   86.69
   1   3  12  894.11   70.69
  -2  -3 -12    1.30   34.00
  -2  -3 -12   26.30   21.20
   2  -3  12   18.10   32.30
   2   3  12   63.89   26.50
   3  -3  12  667.33   86.19
   3   3  12  607.54   69.39
   3   3  12  735.23   64.79
   3  -4 -12  406.36   50.49
   3  -4 -12  478.95   51.19
   3   4 -12  320.17   59.79
  -3   4  12  330.77   55.99
   2  -4 -12  150.98   34.70
  -2  -4  12  146.99   31.50
  -2  -4  12  193.48   29.60
   2  -4 -12  170.68   44.90
   2   4 -12  110.79   33.80
  -2   4  12  216.58   44.10
   2   4 -12  146.99   32.30
   2   4 -12  122.29   21.50
   1  -4 -12 2039.10  148.59
   1  -4 -12 1999.40  150.48
  -1  -4  12 2190.68  151.58
   1  -4 -12 2262.67  153.98
   1   4 -12 2140.59  156.38
   1   4 -12 2183.58  151.78
   1   4 -12 2092.59  150.58
  -1   4  12 2272.97  156.88
  -1   4  12 1920.11  149.09
   0  -4  12  699.23   86.89
   0  -4 -12  903.41   62.59
   0  -4  12  892.31   65.89
   0  -4 -12  774.32   65.89
   0  -4  12  779.82   64.39
   0   4 -12  832.22   66.79
   0   4 -12  730.63   76.99
   0   4  12  770.82   62.69
   0   4 -12  781.72   62.69
   0   4  12  689.63   71.99
   0   4  12  727.03   59.69
  -1  -4 -12  915.01   88.99
   1  -4  12  887.21   80.39
   1  -4  12 1013.70   76.69
  -1  -4 -12  898.01   93.59
  -1   4 -12  963.50   69.89
   1   4  12 1062.59   83.89
   1   4  12 1042.00   75.69
  -1   4 -12  900.01   88.39
  -1   4 -12 1117.59   90.29
   1   4  12  961.30   76.59
   2  -4  12  115.99   35.90
  -2  -4 -12   95.79   41.40
   2   4  12  157.08   32.70
  -2   4 -12   73.19   45.00
   2  -5 -12  277.17   40.80
   2   5 -12  260.47   51.49
   2   5 -12  270.97   60.99
   1  -5 -12   12.60   18.40
   1  -5 -12   43.60   30.60
  -1   5  12    1.80   35.40
   1   5 -12  -17.60   32.00
   1   5 -12  -15.50   24.30
   0  -5  12   56.79   27.40
   0  -5 -12   41.30   34.40
   0  -5 -12    4.80   16.10
   0  -5 -12   -7.50   39.20
   0  -5  12   50.39   20.30
   0   5 -12  -24.60   33.80
   0   5  12    8.30   15.80
   0   5 -12   -1.50   20.90
   0   5  12   30.00   33.10
   0   5 -12   10.60   18.20
   1  -5  12  328.57   54.19
   1  -5  12  395.76   70.39
  -1  -5 -12  291.37   39.90
  -1  -5 -12  303.17   63.29
  -1   5 -12  316.27   64.29
   1   5  12  396.26   55.19
   4   0 -13   59.29   31.10
   3   0 -13  133.89   28.60
   3   0 -13  165.18   24.50
   2   0 -13   -4.20   21.40
   2   0 -13   -7.40   14.40
   2   0 -13    8.90   13.50
   2   0 -13   -1.30    1.30
  -1   0  13 1568.34  111.79
  -1   0  13 1492.15  108.69
   1   0 -13 1487.75  104.59
   1   0 -13 1474.35  105.49
   1   0 -13 1604.14  110.19
   1   0 -13 1370.66  111.29
   1   0 -13 1591.64  110.39
   0   0 -13   -1.50   23.10
   0   0 -13   31.80   17.80
   0   0 -13   -2.60   16.70
   0   0 -13   11.10   17.00
   0   0  13    4.50   19.70
   1   0  13 4184.78  253.37
  -1   0 -13 3520.15  254.97
  -1   0 -13 3584.34  254.57
  -1   0 -13 3460.75  253.67
   1   0  13 3639.44  252.27
   2   0  13   17.20   16.90
   2   0  13    8.60   26.10
  -2   0 -13    4.30   16.20
  -2   0 -13  -32.70   29.00
  -3   0 -13  676.43   81.29
   3   0  13  756.02   71.29
   3   0  13  801.52   59.39
  -4  -1  13  117.49   34.60
   3  -1 -13 1092.19   79.99
   3  -1 -13 1204.78   82.39
  -3  -1  13 1047.30   91.09
   3  -1 -13 1256.37   89.29
  -3  -1  13 1111.39   80.39
   3   1 -13 1096.59   81.79
   3   1 -13 1011.90   89.99
   2  -1 -13 1578.14  102.99
  -2  -1  13 1181.38  106.09
   2  -1 -13 1452.45  108.69
   2  -1 -13 1448.06  105.29
   2  -1 -13 1418.46   99.09
   2   1 -13 1430.46  102.69
  -2   1  13 1564.64  109.19
   2   1 -13 1249.77   96.89
   2   1 -13 1388.26  106.39
  -1  -1  13 1000.50   88.59
   1  -1 -13 1062.59   83.89
   1  -1 -13  970.40   87.19
   1  -1 -13 1235.88   88.39
   1  -1 -13 1216.38   86.59
  -1   1  13 1055.29   79.19
   1   1 -13 1313.27   88.49
   1   1 -13 1169.08   85.59
   1   1 -13 1296.27   90.69
  -1   1  13 1261.67   81.49
   0  -1 -13   71.09   22.50
   0  -1 -13   42.90   32.20
   0  -1  13   37.60   20.00
   0  -1 -13   66.09   17.50
   0  -1 -13   69.19   21.10
   0   1  13   49.10   20.50
   0   1 -13   47.70   18.00
   0   1  13   86.49   17.00
   0   1 -13   63.49   27.60
   0   1 -13   58.49   21.80
  -1  -1 -13   10.80   23.70
  -1  -1 -13    6.50   17.40
  -1  -1 -13   35.10   16.10
  -1  -1 -13  -14.80   24.40
   1  -1  13   18.40   17.20
   1   1  13    9.90   19.10
  -1   1 -13   52.39   22.60
   1   1  13   12.00   19.10
  -1   1 -13   17.40   23.10
  -2  -1 -13  108.09   22.30
  -2  -1 -13   89.99   36.00
   2   1  13  133.69   28.80
  -2   1 -13  131.59   35.20
   2   1  13  185.08   33.90
  -3  -1 -13  213.68   35.20
  -3  -1 -13  254.27   61.29
  -3   1 -13  277.07   64.19
   3   1  13  332.17   50.39
  -4  -2  13  189.08   42.10
   4  -2 -13  246.68   53.89
  -4  -2  13  228.88   64.79
   3  -2 -13   43.70   26.20
   3  -2 -13   32.00   18.70
   3  -2 -13   46.50   14.50
  -3  -2  13  -33.40   27.20
   3   2 -13   15.70   27.00
   3   2 -13   -0.90   13.90
  -2  -2  13  502.35   58.99
   2  -2 -13  639.24   50.59
   2  -2 -13  615.64   55.49
   2  -2 -13  564.54   50.69
  -2   2  13  672.53   67.09
   2   2 -13  542.15   77.99
   2   2 -13  620.54   50.89
   1  -2 -13  729.33   56.99
   1  -2 -13  673.13   59.19
   1  -2 -13  650.83   58.29
  -1  -2  13  574.74   59.79
  -1  -2  13  614.94   55.19
   1  -2 -13  646.64   57.39
   1   2 -13  737.13   59.09
   1   2 -13  826.02   65.19
   0  -2  13 3432.76  243.48
   0  -2 -13 3616.04  247.98
   0  -2  13 3183.28  246.18
   0  -2 -13 3532.85  249.38
   0  -2  13 3423.26  246.18
   0  -2 -13 3633.14  248.68
   0   2 -13 3618.74  248.68
   0   2  13 3976.80  243.58
   0   2  13 3737.83  247.78
  -1  -2 -13  612.44   55.39
   1  -2  13  601.44   51.69
  -1  -2 -13  703.13   53.29
  -1  -2 -13  586.74   60.39
   1  -2  13  537.35   51.09
   1   2  13  512.15   54.59
   1   2  13  537.95   50.89
  -1   2 -13  607.74   56.29
  -1   2 -13  484.95   67.79
  -2  -2 -13  530.05   57.99
   2  -2  13  654.23   51.39
  -2  -2 -13  668.03   58.39
  -2  -2 -13  766.42   71.99
  -2   2 -13  628.14   81.49
   3  -2  13   91.39   44.70
   3  -2  13   25.60   45.60
   3   2  13   25.00   31.50
   3  -3 -13   27.70   22.10
   3  -3 -13   14.50   27.40
   3   3 -13   24.70   29.50
   2  -3 -13 2696.23  175.38
  -2  -3  13 2294.17  173.88
   2  -3 -13 2296.27  176.78
  -2  -3  13 2261.07  176.58
   2   3 -13 2559.24  174.48
   2   3 -13 2825.32  179.58
  -1  -3  13  -16.40   22.00
   1  -3 -13   -5.00   19.50
   1  -3 -13   -1.40   18.10
   1  -3 -13   -8.40   23.10
  -1   3  13   45.20   29.20
  -1   3  13    3.00   27.60
   1   3 -13   27.60   29.40
   1   3 -13   11.50   19.20
   0  -3  13  175.58   29.70
   0  -3 -13  173.78   44.30
   0  -3 -13  255.27   36.00
   0  -3  13  243.78   32.90
   0  -3  13  146.09   35.10
   0  -3 -13  156.18   26.40
   0   3  13  200.48   26.50
   0   3  13  238.18   28.50
   0   3 -13  241.18   38.60
   0   3  13  141.99   31.10
   0   3 -13  225.08   36.70
  -1  -3 -13  118.59   28.50
   1  -3  13  114.49   20.60
   1  -3  13  126.19   27.10
  -1  -3 -13  183.28   35.30
  -1  -3 -13  121.99   37.80
   1  -3  13  172.68   31.80
   1   3  13  109.49   23.30
  -1   3 -13  109.49   23.00
   1   3  13  135.69   29.70
  -1   3 -13   55.69   37.90
   2  -3  13  300.87   50.99
  -2  -3 -13  215.78   45.90
   2   3  13  198.88   43.30
   2   3  13  302.57   46.40
  -2   3 -13  158.68   52.99
  -3  -4  13  -36.00   33.50
   3  -4 -13   39.40   25.90
   3  -4 -13   21.10   27.70
   3   4 -13   15.60   31.90
  -2  -4  13  463.95   60.69
   2  -4 -13  644.94   57.89
   2  -4 -13  514.15   53.39
   2   4 -13  446.66   64.59
   2   4 -13  633.74   66.59
  -1  -4  13   42.40   26.70
   1  -4 -13   88.99   21.50
   1   4 -13   86.69   23.70
   1   4 -13  102.29   36.10
  -1   4  13   95.89   18.80
  -1   4  13   81.59   32.30
   1   4 -13   49.80   27.60
   0  -4 -13 1556.24  111.69
   0  -4  13 1469.45  109.19
   0  -4  13 1508.05  108.29
   0   4 -13 1520.85  107.39
   0   4  13 1379.26  107.19
   0   4  13 1345.17  113.59
   0   4 -13 1557.14  119.89
   0   4 -13 1482.95  110.89
   0   4  13 1432.66  104.19
  -1  -4 -13  579.64   58.09
   1  -4  13  664.93   58.19
   1  -4  13  559.64   59.49
  -1  -4 -13  586.34   70.19
  -1   4 -13  658.43   59.89
   1   4  13  603.34   63.59
   1   4  13  521.15   53.19
  -1   4 -13  560.04   45.80
  -1   4 -13  560.74   75.59
   2  -4  13  710.93   75.59
  -2  -4 -13  726.03   82.89
   2   4  13  592.94   65.59
  -2   4 -13  614.54   89.79
   2   4  13  779.32   69.79
   2  -5 -13  175.08   38.60
   2   5 -13  112.09   33.60
  -2   5  13  263.07   49.50
   2   5 -13  185.68   41.20
   1  -5 -13  804.42   74.19
   1  -5 -13  745.13   61.59
   1   5 -13  652.03   66.89
  -1   5  13  821.12   80.09
   1   5 -13  649.14   80.89
   0  -5 -13   -7.80   24.20
   0  -5 -13   35.20   35.30
   0   5 -13  -18.30   35.30
   0   5 -13    3.60   42.20
   0   5  13   43.60   31.90
   0   5  13   61.49   23.10
   1  -5  13   43.70   52.19
  -1  -5 -13   -8.60   39.50
   1  -5  13    9.30   31.50
   1   5  13   56.49   50.99
   4   0 -14  645.74  102.79
   3   0 -14   32.50   27.40
   3   0 -14   12.40   13.70
   2   0 -14   68.29   30.70
  -2   0  14   50.19   29.30
   1   0 -14    6.40   24.40
  -1   0  14  -19.20   22.00
   1   0 -14   -7.70   22.50
   1   0 -14    8.20   16.20
   0   0 -14 1711.03  133.39
   0   0 -14 1706.33  126.69
   0   0  14 1941.61  128.49
   0   0 -14 1754.62  128.49
   1   0  14   26.20   19.00
  -1   0 -14    3.90   16.50
  -1   0 -14  -12.80   22.50
   1   0  14   21.90   22.30
  -1   0 -14   23.20   20.40
   2   0  14 1397.06   99.79
  -2   0 -14 1281.27  101.59
   2   0  14 1466.65  104.19
  -2   0 -14 1313.37  109.19
   3   0  14   25.20   32.50
  -4  -1  14  511.05   68.19
  -4   1  14  399.96   80.99
  -3  -1  14  236.58   28.20
   3  -1 -14  309.57   48.60
   3  -1 -14  293.07   28.00
   3  -1 -14  303.17   31.10
   3   1 -14  252.17   49.00
   3   1 -14  211.58   30.40
   2  -1 -14 2196.18  143.39
   2  -1 -14 1937.01  139.49
   2  -1 -14 2002.00  150.28
   2   1 -14 2152.58  143.79
   2   1 -14 2103.39  146.59
   2   1 -14 1747.93  137.59
   1  -1 -14 1461.35  104.19
   1  -1 -14 1351.56  117.09
   1  -1 -14 1339.17  105.89
   1  -1 -14 1309.87  101.29
  -1  -1  14 1277.37  106.39
   1   1 -14 1377.46  103.59
  -1   1  14 1330.57   96.79
   1   1 -14 1577.44  105.89
   1   1 -14 1502.55  108.19
  -1   1  14 1635.24  108.29
   0  -1 -14 1059.59   82.29
   0  -1  14 1216.48   78.39
   0  -1  14 1139.29   82.89
   0  -1 -14  962.10   81.79
   0  -1 -14 1063.09   84.19
   0   1  14 1095.19   83.69
   0   1 -14  996.40   79.29
   0   1 -14  999.20   80.89
   0   1 -14 1057.49   94.09
   1  -1  14  297.17   36.50
  -1  -1 -14  321.57   48.40
  -1  -1 -14  318.97   36.60
  -1  -1 -14  222.78   43.60
  -1  -1 -14  245.18   39.30
  -1   1 -14  271.57   44.00
  -1   1 -14  193.18   41.80
  -1   1 -14  340.37   41.90
   1   1  14  263.37   39.00
   1   1  14  277.27   35.50
   2  -1  14    3.20   16.80
   2  -1  14   40.70   28.60
  -2  -1 -14  -32.10   28.30
  -2  -1 -14  -19.90   21.60
   2   1  14   -4.30   26.50
   2   1  14   31.30   20.90
   3  -1  14   70.29   41.30
   3  -1  14   83.49   50.69
   3   1  14   39.30   30.10
   3  -2 -14  487.35   45.70
   3  -2 -14  460.85   55.69
   3   2 -14  508.65   58.19
   2  -2 -14   30.80   25.70
   2  -2 -14   65.59   17.40
   2  -2 -14   45.70   19.50
   2   2 -14   27.00   16.90
   2   2 -14   23.60   27.40
  -2   2  14    4.70   29.30
   1  -2 -14  130.09   27.50
  -1  -2  14   87.99   35.60
   1  -2 -14  139.79   26.60
   1  -2 -14  216.08   31.00
   1  -2 -14  132.99   33.30
  -1   2  14  186.48   44.70
   1   2 -14  181.78   28.40
   1   2 -14  159.38   32.80
   0  -2 -14  487.25   53.99
   0  -2 -14  569.14   50.69
   0  -2  14  469.55   44.50
   0  -2 -14  442.86   53.89
   0  -2 -14  610.94   53.59
   0   2  14  612.74   44.50
   0   2  14  593.44   61.19
   0   2 -14  488.05   54.09
   1  -2  14 2206.68  144.09
  -1  -2 -14 1848.42  146.09
   1  -2  14 1985.60  140.89
  -1   2 -14 1973.50  145.29
  -1   2 -14 2247.98  152.58
   1   2  14 1699.03  139.99
  -2  -2 -14  229.98   37.00
   2  -2  14  278.77   34.40
  -2  -2 -14  371.16   56.99
  -2   2 -14  335.47   58.29
   2   2  14  380.76   45.90
   3  -3 -14 1171.68   95.29
   3  -3 -14 1197.48   90.69
  -3  -3  14 1045.30   99.19
   3   3 -14 1241.08   98.59
  -3   3  14 1261.47  109.29
   2  -3 -14   18.90   22.60
   2  -3 -14   24.10   23.10
  -2   3  14  -14.10   34.90
   2   3 -14    7.40   22.00
   2   3 -14   10.80   30.10
  -1  -3  14 2839.92  217.58
  -1  -3  14 3452.75  223.68
   1  -3 -14 2690.13  215.58
   1  -3 -14 2701.03  217.18
   1  -3 -14 3159.08  219.08
  -1   3  14 3420.86  220.28
   1   3 -14 3055.09  218.18
   1   3 -14 3621.54  221.58
   0  -3  14   14.50   35.60
   0  -3 -14   20.40   21.60
   0  -3  14  -11.80   16.70
   0  -3 -14    2.20   25.80
   0  -3  14   30.20   18.40
   0   3  14    6.60   14.70
   0   3 -14   -7.10   24.50
   0   3  14  -13.70   24.90
   0   3 -14  -23.60   32.40
  -1  -3 -14  330.97   40.70
  -1  -3 -14  285.57   54.79
   1  -3  14  392.46   41.50
   1  -3  14  292.97   44.50
   1   3  14  288.57   39.70
  -1   3 -14  367.66   47.20
   1   3  14  305.67   48.90
  -1   3 -14  249.48   48.30
  -2  -3 -14   28.20   38.10
   2  -3  14   67.49   35.40
   2   3  14   78.79   28.90
   2  -4 -14   63.79   28.10
   2  -4 -14   52.29   24.50
   2   4 -14   28.50   31.70
  -2   4  14   36.50   38.90
   1  -4 -14  380.86   46.10
   1  -4 -14  383.16   54.29
  -1   4  14  431.26   60.49
   1   4 -14  396.86   64.29
   0  -4 -14   -5.00   30.10
   0  -4 -14  -66.19   38.30
   0  -4  14   67.19   21.50
   0  -4  14   48.90   22.40
   0  -4  14   -0.60   41.30
   0   4  14   19.00   17.70
   0   4 -14   -9.70   22.40
   0   4 -14   10.60   21.40
   0   4 -14  -30.10   36.80
   0   4  14   21.00   28.60
   1  -4  14  842.12   70.09
   1   4  14  750.52   73.09
   1   4  14  678.93   63.19
  -1   4 -14  697.03   86.49
   1   5 -14  183.48   34.70
   1   5 -14  246.58   49.40
   0  -5  14  811.52   83.39
   0  -5 -14  831.22   80.69
   0   5 -14  710.13   71.39
   0   5  14  691.83   91.39
   2   0 -15   22.50   16.10
   2   0 -15   18.90   27.60
  -1   0  15   -2.40   23.20
   1   0 -15   17.00   41.90
   1   0 -15   43.80   19.40
   1   0 -15   22.90   19.90
   0   0 -15   27.90   19.60
   0   0 -15   16.90   25.90
   0   0  15    8.90   19.80
   0   0 -15  -23.90   22.40
   0   0 -15   12.10   19.30
   0   0  15   39.50   22.90
  -1   0 -15 1125.99   92.29
   1   0  15 1297.67   92.09
   2   0  15   51.19   19.30
  -2   0 -15  -24.10   30.10
   2   0  15   22.20   28.50
   3  -1 -15  829.22   75.89
   3   1 -15  785.32   75.09
   2  -1 -15  404.16   39.40
   2  -1 -15  401.56   35.60
   2  -1 -15  348.37   49.99
   2   1 -15  404.26   42.20
   2   1 -15  390.86   51.39
  -2   1  15  343.97   55.79
   1  -1 -15 2687.93  202.08
   1  -1 -15 2932.91  206.08
  -1  -1  15 2958.60  206.48
   1  -1 -15 2995.90  206.68
   1  -1 -15 2848.31  204.88
   1   1 -15 2765.82  204.28
  -1   1  15 2586.94  198.48
   1   1 -15 3236.18  207.58
   1   1 -15 2967.50  206.28
  -1   1  15 3398.46  207.68
   0  -1  15  886.71   60.19
   0  -1 -15  756.92   64.09
   0  -1  15  761.42   65.89
   0  -1 -15  916.61   71.19
   0  -1 -15  692.63   66.19
   0  -1 -15  656.43   63.79
   0   1 -15  632.84   60.59
   0   1 -15  744.13   63.29
   0   1 -15  837.52   67.69
   0   1  15  819.52   66.39
   1  -1  15 1344.17   89.89
  -1  -1 -15 1060.69   91.29
   1  -1  15 1271.17   87.39
  -1  -1 -15 1056.19   89.59
  -1  -1 -15 1199.48   89.59
   1   1  15 1068.29   88.29
  -1   1 -15 1100.89   87.19
  -1   1 -15 1049.49   90.39
  -1   1 -15 1019.30  102.79
   1   1  15 1244.08   87.19
   2  -1  15  182.28   32.70
   2   1  15  197.48   40.00
  -3  -2  15   96.09   27.10
  -3  -2  15   36.50   32.50
  -3   2  15  128.29   43.60
   2  -2 -15  641.44   55.09
   2  -2 -15  683.63   56.09
   2  -2 -15  593.54   62.59
   2   2 -15  685.33   66.19
   2   2 -15  582.14   56.49
   1  -2 -15  -15.10   24.60
   1  -2 -15   25.80   21.40
   1  -2 -15   70.09   20.60
   1  -2 -15    1.80   22.70
  -1   2  15   32.10   29.10
   1   2 -15   13.70   26.60
   1   2 -15   28.10   23.70
   0  -2 -15   11.50   23.80
   0  -2 -15  -12.10   20.10
   0  -2 -15   69.09   21.40
   0  -2  15   74.89   30.80
   0  -2  15    9.40   15.70
   0  -2 -15   32.40   24.40
   0   2  15   43.60   17.10
   0   2 -15   42.50   26.60
   0   2 -15   17.00   30.60
   0   2  15   24.20   23.90
   1  -2  15  307.77   43.20
  -1  -2 -15  304.77   46.40
  -1  -2 -15  214.68   56.19
  -1  -2 -15  180.58   31.80
  -1  -2 -15  336.17   39.60
   1  -2  15  200.38   30.80
  -1   2 -15  260.47   47.60
   1   2  15  247.08   44.70
  -1   2 -15  313.17   45.20
   1   2  15  251.77   37.60
  -2  -2 -15  297.57   41.20
  -2  -2 -15  366.96   57.99
  -2   2 -15  302.37   60.19
   3  -3 -15   65.19   33.60
   3   3 -15   88.69   39.20
   2  -3 -15 1105.69   91.09
   2  -3 -15 1091.69   89.49
   2   3 -15 1246.28   96.59
  -1  -3  15   47.30   17.60
   1  -3 -15   21.80   24.00
   1  -3 -15   10.50   25.20
   1   3 -15   13.40   24.10
   1   3 -15   14.50   33.50
  -1   3  15   11.50   28.60
   0  -3  15 2169.68  173.08
   0  -3 -15 2365.86  174.28
   0  -3 -15 2270.87  185.18
   0  -3 -15 2831.12  173.38
   0  -3  15 2116.59  173.08
   0   3 -15 2914.41  181.78
   0   3  15 2540.05  168.58
   0   3 -15 2422.26  176.88
   0   3  15 2367.36  176.18
  -1  -3 -15    6.20   31.50
   1  -3  15   85.19   37.20
  -1  -3 -15   -4.40   23.30
   1  -3  15   -9.10   25.20
   1   3  15   16.00   21.80
   1   3  15   36.40   29.30
  -1   3 -15   11.60   28.90
   2  -3  15  236.68   61.79
   2  -3  15  216.08   41.60
   2   3  15  216.38   47.00
  -2  -4  15  328.57   51.19
   2  -4 -15  467.55   52.79
   2  -4 -15  515.45   54.89
  -2   4  15  395.56   91.59
   2   4 -15  379.76   54.59
   2   4 -15  478.15   65.89
   1  -4 -15   87.19   31.90
  -1   4  15   70.39   31.20
   1   4 -15   54.49   36.80
   0  -4 -15  109.99   34.60
   0  -4  15  107.09   43.50
   0  -4 -15   40.60   31.10
   0   4 -15   58.09   27.80
   0   4  15  128.19   34.80
   0   4 -15   45.30   39.60
  -1  -4 -15    2.00   35.30
   1  -4  15   93.69   42.80
   1   4  15   79.29   45.10
   1   4  15    8.00   23.00
   3   0 -16   52.19   32.40
   2   0 -16 1848.92  141.69
  -2   0  16 1928.31  143.89
   2   0 -16 1966.60  144.89
  -1   0  16  -30.80   25.70
   1   0 -16   22.50   17.60
   1   0 -16   11.50   26.70
   0   0 -16  487.05   48.20
   0   0  16  474.05   53.89
   0   0 -16  390.46   48.30
  -1   0 -16   45.50   21.20
   1   0  16   19.90   25.80
  -1   0 -16  -42.20   34.20
   1   0  16   26.10   22.10
  -1   0 -16  -28.00   24.00
  -1   0 -16    1.10   19.10
  -2   0 -16  163.18   36.60
   3  -1 -16   44.60   31.10
   3   1 -16   43.10   33.40
   2  -1 -16  592.74   46.90
   2  -1 -16  532.15   60.99
  -2   1  16  604.34   66.29
   2   1 -16  603.04   62.99
   1  -1 -16  549.35   60.19
   1  -1 -16  555.34   51.19
  -1  -1  16  454.85   59.09
   1  -1 -16  473.85   47.90
   1   1 -16  599.64   54.49
  -1   1  16  595.34   59.99
   1   1 -16  601.64   60.19
   0  -1 -16 1808.32  142.69
   0  -1 -16 1894.11  145.29
   0  -1  16 2111.79  144.49
   0  -1  16 2136.69  140.19
   0  -1 -16 1888.51  143.89
   0   1  16 2151.28  145.39
   0   1 -16 2073.19  146.19
   0   1 -16 1924.21  149.29
  -1  -1 -16  466.65   49.60
  -1  -1 -16  482.15   60.49
   1  -1  16  378.56   48.30
   1  -1  16  543.65   52.29
   1  -1  16  609.34   85.79
  -1   1 -16  493.85   53.39
  -1   1 -16  437.26   47.70
   1   1  16  426.56   52.49
   1   1  16  479.45   49.99
  -1   1 -16  462.05   70.49
   2  -1  16  904.11   66.99
  -2  -1 -16  714.53   78.69
   2   1  16  930.01   69.99
   2   1  16  915.11   72.49
  -2   1 -16  696.53   78.29
  -2   1 -16  699.13  100.59
   2  -2 -16  585.84   52.09
   2  -2 -16  539.35   62.49
  -2   2  16  620.34   70.29
   2   2 -16  580.84   64.59
   1  -2 -16  754.52   70.89
   1  -2 -16  858.61   76.99
   1  -2 -16  888.51   72.39
   1   2 -16  833.02   74.89
   1   2 -16  957.30   79.89
  -1   2  16  965.40   80.39
   0  -2 -16    0.00   23.60
   0  -2  16   61.69   31.90
   0  -2 -16    2.80   24.10
   0  -2 -16   47.60   19.80
   0  -2 -16  -25.80   36.60
   0   2  16    3.10   17.90
   0   2  16    3.10   27.80
   0   2 -16    7.60   33.70
   0   2 -16   17.20   24.20
   1  -2  16   91.99   36.40
  -1  -2 -16    8.50   27.30
  -1  -2 -16    2.00   26.90
   1  -2  16   31.50   26.20
  -1   2 -16  -25.20   41.80
  -1   2 -16   87.69   35.20
   1   2  16   36.60   21.40
   1   2  16   66.39   28.70
   2  -2  16  119.99   37.90
   2  -2  16  171.88   42.60
   2   2  16  107.09   31.10
   2  -3 -16   83.79   29.10
   2   3 -16   55.99   32.00
  -2   3  16   43.10   39.20
  -1  -3  16 1193.48  101.79
   1  -3 -16  906.21   85.19
  -1   3  16 1078.59   92.39
   1   3 -16 1059.89   93.39
   0  -3 -16   66.79   30.80
   0  -3 -16   90.79   25.90
   0  -3  16  119.39   39.30
   0   3  16   72.89   17.90
   0   3 -16   54.39   39.50
   0   3  16   85.79   33.60
   0   3 -16   56.79   30.10
  -1  -3 -16 1275.67  106.29
   1  -3  16 1454.75  102.39
   1  -3  16 1089.79   97.19
   1   3  16 1250.07  102.09
   1   3  16 1290.57   95.59
  -1  -4  16  236.18   52.99
   1  -4 -16  365.36   55.39
   1   4 -16  348.77   68.39
  -1   4  16  429.36   63.09
   0  -4  16   93.79   47.50
   0  -4 -16   93.09   36.00
   0   4  16  103.29   42.60
   0   4 -16   23.60   44.70
   3   0 -17 1394.96  105.09
  -3   0  17 1128.79  108.29
   2   0 -17   39.70   28.00
  -2   0  17  -33.90   33.20
   1   0 -17 1587.94  117.59
   1   0 -17 1364.36  110.49
   1   0 -17 1721.73  121.89
  -1   0  17 1697.53  121.09
   0   0  17   34.60   26.30
   0   0 -17    4.80   20.30
   0   0  17   -6.50   25.00
   0   0 -17    8.60   31.00
   0   0 -17   49.90   22.90
   1   0  17  404.36   48.20
  -1   0 -17  459.45   65.29
  -3  -1  17  -42.70   37.30
   2  -1 -17   74.99   30.70
   2   1 -17   59.29   31.30
  -2   1  17   22.90   32.10
  -1  -1  17  413.06   54.09
   1  -1 -17  408.36   48.90
   1  -1 -17  349.07   52.49
  -1   1  17  307.27   53.59
   1   1 -17  304.57   54.09
   1   1 -17  385.56   58.29
   0  -1  17  425.16   42.30
   0  -1 -17  483.25   59.39
   0  -1  17  361.06   52.79
   0  -1 -17  491.55   49.50
   0   1 -17  466.35   60.89
   0   1  17  452.75   55.49
   0   1 -17  399.26   47.20
  -1  -1 -17  853.71   78.49
   1  -1  17  804.32   70.39
   1  -1  17  648.24   67.09
   1   1  17  747.93   69.69
   1   1  17  874.11   69.69
  -1   1 -17  879.81   87.59
   2  -2 -17 1052.09   94.89
  -2  -2  17 1175.68   97.39
   2  -2 -17 1166.08   87.79
  -2   2  17 1271.07  102.19
   2   2 -17 1179.68   98.39
   1  -2 -17  689.43   67.59
   1  -2 -17  578.44   59.19
   1   2 -17  674.13   70.59
  -1   2  17  705.33   71.09
   0  -2 -17 1124.39   91.09
   0  -2 -17  952.00   91.59
   0  -2 -17 1293.77   94.09
   0   2 -17 1341.07  102.49
   0   2  17 1120.69   94.29
   0   2 -17 1117.49   94.09
  -1  -2 -17   36.50   28.90
   1  -2  17   29.80   26.50
   1  -2  17  110.69   38.50
  -1  -2 -17    9.30   28.40
   1   2  17   79.09   29.50
  -1   2 -17   12.30   41.70
   1   2  17   50.69   23.60
   1  -3 -17   63.79   29.00
   1   3 -17   54.39   63.79
  -1   3  17   39.40   49.20
   0  -3 -17  639.14   70.99
   0   3  17  744.23   71.19
   0   3 -17  723.93  131.19
   2   0 -18 1640.14  128.89
  -2   0  18 1561.14  127.19
   1   0 -18   32.20   29.30
  -1   0  18  -30.60   30.20
   0   0 -18 1151.28   93.99
   0   0  18 1105.69   90.69
   1   0  18   -5.90   22.50
   1   0  18   27.10   30.90
  -1   0 -18  -34.70   36.50
   2  -1 -18  375.76   59.29
   2   1 -18  272.17   67.99
   1  -1 -18   69.79   22.40
  -1  -1  18   22.20   30.00
  -1  -1  18  131.59   34.70
   1  -1 -18  121.69   32.20
  -1   1  18   81.89   32.60
   1   1 -18  135.49   34.60
   0  -1  18  117.09   29.50
   0  -1 -18  129.29   27.70
   0   1 -18  158.18   35.40
   0   1  18  209.38   46.50
  -1  -1 -18   73.59   34.10
   1  -1  18  151.38   37.60
   1  -1  18  101.89   27.90
  -1  -1 -18   47.90   29.50
   1  -1  18   54.19   24.90
  -1   1 -18   81.59   44.20
   1   1  18  120.99   29.30
   1   1  18   80.39   29.40
  -1  -2  18  747.73   81.59
   1  -2 -18  848.42   74.29
   1  -2 -18  974.00   81.29
  -1   2  18 1032.40   96.79
   1   2 -18 1010.40  125.59
   0  -2  18  215.58   36.50
   0  -2 -18  199.08   45.80
   0   2 -18  346.27   77.59
   0   2  18  316.47   52.79
   1   0 -19 1514.05  120.19
  -1   0  19 1378.06  113.29
   0   0  19   37.90   29.50
   0   0 -19   17.00   31.80
   0   0  19    1.50   25.40
   0   0   0    0.00    0.00
;
_shelx_hkl_checksum                35953
_olex2_submission_special_instructions  'No special instructions were received'
