####################################################################### 
# 
# This file contains crystal structure data downloaded from the 
# Cambridge Structural Database (CSD) hosted by the Cambridge 
# Crystallographic Data Centre (CCDC).
# 
# Full information about CCDC data access policies and citation 
# guidelines are available at http://www.ccdc.cam.ac.uk/access/V1 
# 
# Audit and citation data items may have been added by the CCDC. 
# Please retain this information to preserve the provenance of 
# this file and to allow appropriate attribution of the data. 
# 
#######################################################################

data_pHEXBA
_audit_block_doi                 10.5517/ccdc.csd.cc233rmm
_database_code_depnum_ccdc_archive 'CCDC 1940030'
loop_
_citation_id
_citation_doi
_citation_year
1 10.1021/acs.cgd.9b00992 2019
loop_
_audit_author_name
_audit_author_address
'Naba Kamal Nath'
;National Institute of Technology Meghalaya
India
;
_audit_update_record             
;
2019-07-12 deposited with the CCDC.	2025-08-04 downloaded from the CCDC.
;

_audit_creation_method           SHELXL-2016/6
_shelx_SHELXL_version_number     2016/6
_chemical_name_systematic        ?
_chemical_name_common            
;
p-n-Hexyloxybenzoic acid
;
_chemical_melting_point          ?
_chemical_formula_moiety         'C13 H18 O3'
_chemical_formula_sum            'C13 H18 O3'
_chemical_formula_weight         222.27

loop_
_atom_type_symbol
_atom_type_description
_atom_type_scat_dispersion_real
_atom_type_scat_dispersion_imag
_atom_type_scat_source
C C 0.0033 0.0016 'International Tables Vol C Tables 4.2.6.8 and 6.1.1.4'
H H 0.0000 0.0000 'International Tables Vol C Tables 4.2.6.8 and 6.1.1.4'
O O 0.0106 0.0060 'International Tables Vol C Tables 4.2.6.8 and 6.1.1.4'

_space_group_crystal_system      monoclinic
_space_group_IT_number           14
_space_group_name_H-M_alt        'P 21/n'
_space_group_name_Hall           '-P 2yn'

_shelx_space_group_comment       
;
The symmetry employed for this shelxl refinement is uniquely defined
by the following loop, which should always be used as a source of
symmetry information in preference to the above space-group names.
They are only intended as comments.
;

loop_
_space_group_symop_operation_xyz
'x, y, z'
'-x+1/2, y+1/2, -z+1/2'
'-x, -y, -z'
'x-1/2, -y-1/2, z-1/2'

_cell_length_a                   14.6753(13)
_cell_length_b                   4.9555(6)
_cell_length_c                   17.1183(13)
_cell_angle_alpha                90
_cell_angle_beta                 93.432(8)
_cell_angle_gamma                90
_cell_volume                     1242.7(2)
_cell_formula_units_Z            4
_cell_measurement_temperature    293(2)
_cell_measurement_reflns_used    3236
_cell_measurement_theta_min      2.9740
_cell_measurement_theta_max      31.0840

_exptl_crystal_description       needle
_exptl_crystal_colour            Colorless
_exptl_crystal_density_meas      ?
_exptl_crystal_density_method    ?
_exptl_crystal_density_diffrn    1.188
_exptl_crystal_F_000             480
_exptl_transmission_factor_min   ?
_exptl_transmission_factor_max   ?
_exptl_crystal_size_max          0.460
_exptl_crystal_size_mid          0.180
_exptl_crystal_size_min          0.080
_exptl_absorpt_coefficient_mu    0.083
_shelx_estimated_absorpt_T_min   0.963
_shelx_estimated_absorpt_T_max   0.993
_exptl_absorpt_correction_T_min  0.52040
_exptl_absorpt_correction_T_max  1.00000
_exptl_absorpt_correction_type   multi-scan
_exptl_absorpt_process_details   
;
CrysAlisPro 1.171.38.46 (Rigaku Oxford Diffraction, 2015)
Empirical absorption correction using spherical harmonics,
 implemented in SCALE3 ABSPACK scaling algorithm.
;
_exptl_absorpt_special_details   ?
_diffrn_ambient_temperature      293(2)
_diffrn_source_power             0.0
_diffrn_source_voltage           50.0
_diffrn_source_current           0.6
_diffrn_radiation_wavelength     0.71073
_diffrn_radiation_type           MoK\a
_diffrn_source                   MicroMax003_Mo
_diffrn_radiation_monochromator  Confocal
_diffrn_measurement_specimen_support Loop
_diffrn_detector                 CCD
_diffrn_measurement_device       
;
AFC12 (Right): Kappa 3 circle
;
_diffrn_measurement_device_type  
;
Rigaku Saturn724+ (4x4 bin mode)
;
_diffrn_detector_area_resol_mean 28.5714
_diffrn_measurement_method       'profile data from \w-scans'

_diffrn_measurement_details      
;
scan:
	Number of images: 200
	           Slice: -30.0000 - 70.0000
	     Image width: 0.5000
	        Exp time: 12.0000
	   Rotation axis: Omega
	           Omega: 0.0000
	           Kappa: 60.0000
	             Phi: 0.0000
	             XTD: 44.9423
	          2theta: -19.7132
scan:
	Number of images: 200
	           Slice: -30.0000 - 70.0000
	     Image width: 0.5000
	        Exp time: 12.0000
	   Rotation axis: Omega
	           Omega: 0.0000
	           Kappa: 60.0000
	             Phi: 90.0000
	             XTD: 44.9423
	          2theta: -19.7132
scan:
	Number of images: 200
	           Slice: -110.0000 - -10.0000
	     Image width: 0.5000
	        Exp time: 12.0000
	   Rotation axis: Omega
	           Omega: 0.0000
	           Kappa: -60.0000
	             Phi: 180.0000
	             XTD: 44.9423
	          2theta: -19.7132
scan:
	Number of images: 200
	           Slice: -110.0000 - -10.0000
	     Image width: 0.5000
	        Exp time: 12.0000
	   Rotation axis: Omega
	           Omega: 0.0000
	           Kappa: -60.0000
	             Phi: 270.0000
	             XTD: 44.9423
	          2theta: -19.7132

;
_diffrn_orient_matrix_UB_11      -0.004187
_diffrn_orient_matrix_UB_12      -0.041170
_diffrn_orient_matrix_UB_13      0.054332
_diffrn_orient_matrix_UB_21      0.200741
_diffrn_orient_matrix_UB_22      -0.021185
_diffrn_orient_matrix_UB_23      -0.000585
_diffrn_orient_matrix_UB_31      0.004768
_diffrn_orient_matrix_UB_32      0.044129
_diffrn_orient_matrix_UB_33      0.038174
_diffrn_orient_matrix_type       XPlain
_diffrn_reflns_transf_matrix_11  -0.004187
_diffrn_reflns_transf_matrix_12  -0.041170
_diffrn_reflns_transf_matrix_13  0.054332
_diffrn_reflns_transf_matrix_21  0.200741
_diffrn_reflns_transf_matrix_22  -0.021185
_diffrn_reflns_transf_matrix_23  -0.000585
_diffrn_reflns_transf_matrix_31  0.004768
_diffrn_reflns_transf_matrix_32  0.044129
_diffrn_reflns_transf_matrix_33  0.038174

_diffrn_reflns_number            8845
_diffrn_reflns_av_unetI/netI     0.0315
_diffrn_reflns_av_R_equivalents  0.0410
_diffrn_reflns_limit_h_min       -17
_diffrn_reflns_limit_h_max       17
_diffrn_reflns_limit_k_min       -5
_diffrn_reflns_limit_k_max       5
_diffrn_reflns_limit_l_min       -20
_diffrn_reflns_limit_l_max       14
_diffrn_reflns_theta_min         2.384
_diffrn_reflns_theta_max         25.347
_diffrn_reflns_theta_full        25.242
_diffrn_measured_fraction_theta_max 0.996
_diffrn_measured_fraction_theta_full 0.996
_diffrn_reflns_Laue_measured_fraction_max 0.996
_diffrn_reflns_Laue_measured_fraction_full 0.996
_diffrn_reflns_point_group_measured_fraction_max 0.996
_diffrn_reflns_point_group_measured_fraction_full 0.996
_reflns_number_total             2261
_reflns_number_gt                1661
_reflns_threshold_expression     'I > 2\s(I)'
_reflns_Friedel_coverage         0.000
_reflns_Friedel_fraction_max     .
_reflns_Friedel_fraction_full    .

_reflns_special_details          
;
 Reflections were merged by SHELXL according to the crystal
 class for the calculation of statistics and refinement.
 
 _reflns_Friedel_fraction is defined as the number of unique
 Friedel pairs measured divided by the number that would be
 possible theoretically, ignoring centric projections and
 systematic absences.
;

_computing_data_collection       
;
CrystalClear-SM Expert 2.1 b28 (Rigaku, 2013)
;
_computing_cell_refinement       'CrysAlisPro 1.171.38.46 (Rigaku OD, 2015)'
_computing_data_reduction        'CrysAlisPro 1.171.38.46 (Rigaku OD, 2015)'
_computing_structure_solution    'SHELXS-97 (Sheldrick, 2008)'

_computing_structure_refinement  'SHELXL-2016/6 (Sheldrick, 2016)'
_computing_molecular_graphics    ?
_computing_publication_material  ?
_refine_special_details          ?
_refine_ls_structure_factor_coef Fsqd
_refine_ls_matrix_type           full
_refine_ls_weighting_scheme      calc
_refine_ls_weighting_details     
'w=1/[\s^2^(Fo^2^)+(0.1059P)^2^+0.2138P] where P=(Fo^2^+2Fc^2^)/3'
_atom_sites_solution_primary     ?
_atom_sites_solution_secondary   ?
_atom_sites_solution_hydrogens   mixed
_refine_ls_hydrogen_treatment    mixed
_refine_ls_extinction_method     'SHELXL-2016/6 (Sheldrick 2016)'
_refine_ls_extinction_coef       0.024(9)
_refine_ls_extinction_expression Fc^*^=kFc[1+0.001xFc^2^\l^3^/sin(2\q)]^-1/4^
_refine_ls_number_reflns         2261
_refine_ls_number_parameters     151
_refine_ls_number_restraints     0
_refine_ls_R_factor_all          0.0848
_refine_ls_R_factor_gt           0.0647
_refine_ls_wR_factor_ref         0.1924
_refine_ls_wR_factor_gt          0.1729
_refine_ls_goodness_of_fit_ref   1.041
_refine_ls_restrained_S_all      1.041
_refine_ls_shift/su_max          0.000
_refine_ls_shift/su_mean         0.000

loop_
_atom_site_label
_atom_site_type_symbol
_atom_site_fract_x
_atom_site_fract_y
_atom_site_fract_z
_atom_site_U_iso_or_equiv
_atom_site_adp_type
_atom_site_occupancy
_atom_site_site_symmetry_order
_atom_site_calc_flag
_atom_site_refinement_flags_posn
_atom_site_refinement_flags_adp
_atom_site_refinement_flags_occupancy
_atom_site_disorder_assembly
_atom_site_disorder_group
C13 C 0.7416(3) 1.4239(9) -0.15746(17) 0.1240(14) Uani 1 1 d . . . . .
H13A H 0.692010 1.529854 -0.180017 0.186 Uiso 1 1 calc R U . . .
H13B H 0.767041 1.316655 -0.197494 0.186 Uiso 1 1 calc R U . . .
H13C H 0.787857 1.541457 -0.134503 0.186 Uiso 1 1 calc R U . . .
C1 C 0.55118(14) 0.4838(4) 0.36934(11) 0.0526(6) Uani 1 1 d . . . . .
C2 C 0.48320(15) 0.6454(5) 0.33566(12) 0.0574(6) Uani 1 1 d . . . . .
H2 H 0.424120 0.628206 0.351865 0.069 Uiso 1 1 calc R U . . .
C3 C 0.50048(15) 0.8327(5) 0.27834(12) 0.0569(6) Uani 1 1 d . . . . .
H3 H 0.453678 0.939167 0.256016 0.068 Uiso 1 1 calc R U . . .
C4 C 0.58927(14) 0.8585(4) 0.25474(11) 0.0520(6) Uani 1 1 d . . . . .
C5 C 0.65832(15) 0.7015(4) 0.28894(12) 0.0566(6) Uani 1 1 d . . . . .
H5 H 0.717691 0.721653 0.273655 0.068 Uiso 1 1 calc R U . . .
C6 C 0.63991(14) 0.5150(5) 0.34554(12) 0.0561(6) Uani 1 1 d . . . . .
H6 H 0.686835 0.409314 0.368016 0.067 Uiso 1 1 calc R U . . .
C7 C 0.52993(15) 0.2797(4) 0.42824(12) 0.0552(6) Uani 1 1 d . . . . .
C8 C 0.54734(16) 1.1995(5) 0.15910(13) 0.0627(6) Uani 1 1 d . . . . .
H8A H 0.519451 1.314354 0.196853 0.075 Uiso 1 1 calc R U . . .
H8B H 0.499936 1.090043 0.132974 0.075 Uiso 1 1 calc R U . . .
C9 C 0.59342(18) 1.3689(5) 0.10035(13) 0.0703(7) Uani 1 1 d . . . . .
H9A H 0.644331 1.462844 0.126893 0.084 Uiso 1 1 calc R U . . .
H9B H 0.550553 1.504115 0.079899 0.084 Uiso 1 1 calc R U . . .
C10 C 0.62832(18) 1.2121(5) 0.03247(13) 0.0722(7) Uani 1 1 d . . . . .
H10A H 0.578039 1.113330 0.006620 0.087 Uiso 1 1 calc R U . . .
H10B H 0.673207 1.081729 0.052372 0.087 Uiso 1 1 calc R U . . .
C11 C 0.67142(18) 1.3929(6) -0.02712(14) 0.0800(8) Uani 1 1 d . . . . .
H11A H 0.626343 1.522812 -0.046974 0.096 Uiso 1 1 calc R U . . .
H11B H 0.721343 1.492471 -0.001007 0.096 Uiso 1 1 calc R U . . .
C12 C 0.7070(2) 1.2407(7) -0.09498(17) 0.1058(11) Uani 1 1 d . . . . .
H12A H 0.658609 1.127928 -0.118162 0.127 Uiso 1 1 calc R U . . .
H12B H 0.756247 1.123181 -0.075757 0.127 Uiso 1 1 calc R U . . .
O1 O 0.44915(11) 0.2464(3) 0.44631(9) 0.0683(6) Uani 1 1 d . . . . .
O2 O 0.59706(11) 0.1397(4) 0.45787(10) 0.0691(5) Uani 1 1 d . . . . .
O3 O 0.61443(10) 1.0309(3) 0.19771(8) 0.0607(5) Uani 1 1 d . . . . .
H2A H 0.580(2) -0.002(8) 0.494(2) 0.143(14) Uiso 1 1 d . . . . .

loop_
_atom_site_aniso_label
_atom_site_aniso_U_11
_atom_site_aniso_U_22
_atom_site_aniso_U_33
_atom_site_aniso_U_23
_atom_site_aniso_U_13
_atom_site_aniso_U_12
C13 0.126(3) 0.171(4) 0.0798(19) 0.004(2) 0.0456(19) -0.033(3)
C1 0.0535(12) 0.0563(13) 0.0495(11) -0.0017(10) 0.0147(9) 0.0014(10)
C2 0.0525(12) 0.0636(15) 0.0583(12) 0.0006(11) 0.0226(10) 0.0007(10)
C3 0.0511(12) 0.0632(15) 0.0578(12) 0.0047(11) 0.0147(10) 0.0058(10)
C4 0.0542(12) 0.0544(13) 0.0488(11) 0.0005(9) 0.0142(9) -0.0020(10)
C5 0.0475(12) 0.0646(15) 0.0593(12) -0.0002(11) 0.0164(10) -0.0034(10)
C6 0.0519(12) 0.0606(14) 0.0568(12) 0.0006(10) 0.0122(9) 0.0043(10)
C7 0.0566(13) 0.0595(14) 0.0508(11) -0.0010(10) 0.0137(10) 0.0037(11)
C8 0.0613(14) 0.0685(16) 0.0595(13) 0.0055(11) 0.0136(11) 0.0004(11)
C9 0.0754(16) 0.0748(17) 0.0617(13) 0.0118(12) 0.0133(12) -0.0015(13)
C10 0.0697(16) 0.0898(19) 0.0579(13) 0.0041(12) 0.0106(12) -0.0144(13)
C11 0.0723(16) 0.102(2) 0.0677(15) 0.0090(14) 0.0170(13) -0.0145(15)
C12 0.104(2) 0.136(3) 0.0808(18) -0.0104(18) 0.0345(18) -0.034(2)
O1 0.0593(10) 0.0792(13) 0.0691(10) 0.0134(8) 0.0268(8) 0.0022(8)
O2 0.0651(10) 0.0738(12) 0.0699(10) 0.0186(9) 0.0164(8) 0.0046(8)
O3 0.0557(9) 0.0681(11) 0.0600(9) 0.0118(8) 0.0165(7) -0.0020(7)

_geom_special_details            
;
 All esds (except the esd in the dihedral angle between two l.s. planes)
 are estimated using the full covariance matrix.  The cell esds are taken
 into account individually in the estimation of esds in distances, angles
 and torsion angles; correlations between esds in cell parameters are only
 used when they are defined by crystal symmetry.  An approximate (isotropic)
 treatment of cell esds is used for estimating esds involving l.s. planes.
;

loop_
_geom_bond_atom_site_label_1
_geom_bond_atom_site_label_2
_geom_bond_distance
_geom_bond_site_symmetry_2
_geom_bond_publ_flag
C13 C12 1.514(4) . ?
C13 H13A 0.9600 . ?
C13 H13B 0.9600 . ?
C13 H13C 0.9600 . ?
C1 C2 1.378(3) . ?
C1 C6 1.396(3) . ?
C1 C7 1.474(3) . ?
C2 C3 1.385(3) . ?
C2 H2 0.9300 . ?
C3 C4 1.393(3) . ?
C3 H3 0.9300 . ?
C4 O3 1.365(2) . ?
C4 C5 1.380(3) . ?
C5 C6 1.377(3) . ?
C5 H5 0.9300 . ?
C6 H6 0.9300 . ?
C7 O1 1.254(3) . ?
C7 O2 1.284(3) . ?
C8 O3 1.423(3) . ?
C8 C9 1.502(3) . ?
C8 H8A 0.9700 . ?
C8 H8B 0.9700 . ?
C9 C10 1.512(3) . ?
C9 H9A 0.9700 . ?
C9 H9B 0.9700 . ?
C10 C11 1.523(3) . ?
C10 H10A 0.9700 . ?
C10 H10B 0.9700 . ?
C11 C12 1.504(4) . ?
C11 H11A 0.9700 . ?
C11 H11B 0.9700 . ?
C12 H12A 0.9700 . ?
C12 H12B 0.9700 . ?
O2 H2A 0.97(4) . ?

loop_
_geom_angle_atom_site_label_1
_geom_angle_atom_site_label_2
_geom_angle_atom_site_label_3
_geom_angle
_geom_angle_site_symmetry_1
_geom_angle_site_symmetry_3
_geom_angle_publ_flag
C12 C13 H13A 109.5 . . ?
C12 C13 H13B 109.5 . . ?
H13A C13 H13B 109.5 . . ?
C12 C13 H13C 109.5 . . ?
H13A C13 H13C 109.5 . . ?
H13B C13 H13C 109.5 . . ?
C2 C1 C6 118.55(19) . . ?
C2 C1 C7 120.47(19) . . ?
C6 C1 C7 121.0(2) . . ?
C1 C2 C3 121.8(2) . . ?
C1 C2 H2 119.1 . . ?
C3 C2 H2 119.1 . . ?
C2 C3 C4 118.8(2) . . ?
C2 C3 H3 120.6 . . ?
C4 C3 H3 120.6 . . ?
O3 C4 C5 115.67(18) . . ?
O3 C4 C3 124.26(19) . . ?
C5 C4 C3 120.07(19) . . ?
C6 C5 C4 120.45(19) . . ?
C6 C5 H5 119.8 . . ?
C4 C5 H5 119.8 . . ?
C5 C6 C1 120.4(2) . . ?
C5 C6 H6 119.8 . . ?
C1 C6 H6 119.8 . . ?
O1 C7 O2 123.1(2) . . ?
O1 C7 C1 120.0(2) . . ?
O2 C7 C1 116.87(19) . . ?
O3 C8 C9 108.21(19) . . ?
O3 C8 H8A 110.1 . . ?
C9 C8 H8A 110.1 . . ?
O3 C8 H8B 110.1 . . ?
C9 C8 H8B 110.1 . . ?
H8A C8 H8B 108.4 . . ?
C8 C9 C10 114.5(2) . . ?
C8 C9 H9A 108.6 . . ?
C10 C9 H9A 108.6 . . ?
C8 C9 H9B 108.6 . . ?
C10 C9 H9B 108.6 . . ?
H9A C9 H9B 107.6 . . ?
C9 C10 C11 112.7(2) . . ?
C9 C10 H10A 109.1 . . ?
C11 C10 H10A 109.1 . . ?
C9 C10 H10B 109.1 . . ?
C11 C10 H10B 109.1 . . ?
H10A C10 H10B 107.8 . . ?
C12 C11 C10 113.6(3) . . ?
C12 C11 H11A 108.9 . . ?
C10 C11 H11A 108.9 . . ?
C12 C11 H11B 108.9 . . ?
C10 C11 H11B 108.9 . . ?
H11A C11 H11B 107.7 . . ?
C11 C12 C13 113.1(3) . . ?
C11 C12 H12A 109.0 . . ?
C13 C12 H12A 109.0 . . ?
C11 C12 H12B 109.0 . . ?
C13 C12 H12B 109.0 . . ?
H12A C12 H12B 107.8 . . ?
C7 O2 H2A 115(2) . . ?
C4 O3 C8 119.36(16) . . ?

loop_
_geom_torsion_atom_site_label_1
_geom_torsion_atom_site_label_2
_geom_torsion_atom_site_label_3
_geom_torsion_atom_site_label_4
_geom_torsion
_geom_torsion_site_symmetry_1
_geom_torsion_site_symmetry_2
_geom_torsion_site_symmetry_3
_geom_torsion_site_symmetry_4
_geom_torsion_publ_flag
C6 C1 C2 C3 1.2(3) . . . . ?
C7 C1 C2 C3 -177.8(2) . . . . ?
C1 C2 C3 C4 -0.4(3) . . . . ?
C2 C3 C4 O3 178.43(19) . . . . ?
C2 C3 C4 C5 -0.7(3) . . . . ?
O3 C4 C5 C6 -178.09(18) . . . . ?
C3 C4 C5 C6 1.1(3) . . . . ?
C4 C5 C6 C1 -0.4(3) . . . . ?
C2 C1 C6 C5 -0.7(3) . . . . ?
C7 C1 C6 C5 178.24(18) . . . . ?
C2 C1 C7 O1 2.2(3) . . . . ?
C6 C1 C7 O1 -176.8(2) . . . . ?
C2 C1 C7 O2 -178.9(2) . . . . ?
C6 C1 C7 O2 2.1(3) . . . . ?
O3 C8 C9 C10 67.5(3) . . . . ?
C8 C9 C10 C11 177.9(2) . . . . ?
C9 C10 C11 C12 179.7(2) . . . . ?
C10 C11 C12 C13 174.6(3) . . . . ?
C5 C4 O3 C8 179.71(19) . . . . ?
C3 C4 O3 C8 0.5(3) . . . . ?
C9 C8 O3 C4 179.39(18) . . . . ?

loop_
_geom_hbond_atom_site_label_D
_geom_hbond_atom_site_label_H
_geom_hbond_atom_site_label_A
_geom_hbond_distance_DH
_geom_hbond_distance_HA
_geom_hbond_distance_DA
_geom_hbond_angle_DHA
_geom_hbond_site_symmetry_A
C5 H5 O3 0.93 2.66 3.435(3) 141.6 2_645
O2 H2A O1 0.97(4) 1.66(4) 2.636(2) 179(4) 3_656
C5 H5 O3 0.93 2.66 3.435(3) 141.6 2_645
O2 H2A O1 0.97(4) 1.66(4) 2.636(2) 179(4) 3_656

_refine_diff_density_max         0.182
_refine_diff_density_min         -0.205
_refine_diff_density_rms         0.043

_shelx_res_file                  
;
TITL Octyl_Mo in P2(1)/n
    shelx.res
    created by SHELXL-2016/6 at 15:13:38 on 30-Nov-2017
CELL  0.71073  14.6753   4.9555  17.1183   90.000   93.432   90.000
ZERR     4.00   0.0013   0.0006   0.0013    0.000    0.008    0.000
LATT   1
SYMM  1/2 - X, 1/2 + Y, 1/2 - Z
SFAC  C    H    O
UNIT  52 72 12
MERG   2
OMIT     2   0   0
OMIT     1   0   1
OMIT    -1   0   1
EQIV $1 -x+3/2, y-1/2, -z+1/2
HTAB C5 O3_$1
EQIV $2 -x+1, -y, -z+1
HTAB O2 O1_$2
HTAB C5 O3_$1
HTAB O2 O1_$2
FMAP   2
PLAN    5
SIZE     0.080   0.180   0.460
ACTA
BOND   $H
CONF
L.S.  10
TEMP    20.00
WGHT    0.105900    0.213800
EXTI    0.024079
FVAR       6.44305
C13   1    0.741650    1.423929   -0.157463    11.00000    0.12589    0.17101 =
         0.07984    0.00409    0.04560   -0.03287
AFIX 137
H13A  2    0.692010    1.529854   -0.180017    11.00000   -1.50000
H13B  2    0.767041    1.316655   -0.197494    11.00000   -1.50000
H13C  2    0.787857    1.541457   -0.134503    11.00000   -1.50000
AFIX   0
C1    1    0.551184    0.483805    0.369341    11.00000    0.05353    0.05631 =
         0.04950   -0.00172    0.01470    0.00135
C2    1    0.483205    0.645404    0.335656    11.00000    0.05250    0.06360 =
         0.05834    0.00057    0.02257    0.00070
AFIX  43
H2    2    0.424120    0.628206    0.351865    11.00000   -1.20000
AFIX   0
C3    1    0.500481    0.832664    0.278337    11.00000    0.05115    0.06318 =
         0.05781    0.00471    0.01468    0.00581
AFIX  43
H3    2    0.453678    0.939167    0.256016    11.00000   -1.20000
AFIX   0
C4    1    0.589267    0.858517    0.254742    11.00000    0.05421    0.05440 =
         0.04877    0.00050    0.01423   -0.00198
C5    1    0.658318    0.701458    0.288935    11.00000    0.04752    0.06465 =
         0.05925   -0.00018    0.01636   -0.00341
AFIX  43
H5    2    0.717691    0.721653    0.273655    11.00000   -1.20000
AFIX   0
C6    1    0.639909    0.515001    0.345536    11.00000    0.05193    0.06059 =
         0.05677    0.00062    0.01217    0.00434
AFIX  43
H6    2    0.686835    0.409314    0.368016    11.00000   -1.20000
AFIX   0
C7    1    0.529932    0.279723    0.428235    11.00000    0.05661    0.05946 =
         0.05083   -0.00096    0.01366    0.00374
C8    1    0.547343    1.199473    0.159104    11.00000    0.06126    0.06853 =
         0.05953    0.00551    0.01364    0.00042
AFIX  23
H8A   2    0.519451    1.314354    0.196853    11.00000   -1.20000
H8B   2    0.499936    1.090043    0.132974    11.00000   -1.20000
AFIX   0
C9    1    0.593417    1.368891    0.100348    11.00000    0.07541    0.07484 =
         0.06170    0.01183    0.01329   -0.00145
AFIX  23
H9A   2    0.644331    1.462844    0.126893    11.00000   -1.20000
H9B   2    0.550553    1.504115    0.079899    11.00000   -1.20000
AFIX   0
C10   1    0.628316    1.212147    0.032468    11.00000    0.06973    0.08978 =
         0.05792    0.00406    0.01063   -0.01436
AFIX  23
H10A  2    0.578039    1.113330    0.006620    11.00000   -1.20000
H10B  2    0.673207    1.081729    0.052372    11.00000   -1.20000
AFIX   0
C11   1    0.671421    1.392869   -0.027115    11.00000    0.07230    0.10168 =
         0.06769    0.00900    0.01698   -0.01445
AFIX  23
H11A  2    0.626343    1.522812   -0.046974    11.00000   -1.20000
H11B  2    0.721343    1.492471   -0.001007    11.00000   -1.20000
AFIX   0
C12   1    0.707020    1.240714   -0.094975    11.00000    0.10409    0.13593 =
         0.08075   -0.01043    0.03450   -0.03445
AFIX  23
H12A  2    0.658609    1.127928   -0.118162    11.00000   -1.20000
H12B  2    0.756247    1.123181   -0.075757    11.00000   -1.20000
AFIX   0
O1    3    0.449150    0.246445    0.446306    11.00000    0.05932    0.07918 =
         0.06908    0.01339    0.02676    0.00223
O2    3    0.597061    0.139739    0.457872    11.00000    0.06510    0.07380 =
         0.06989    0.01862    0.01642    0.00464
O3    3    0.614431    1.030861    0.197706    11.00000    0.05566    0.06812 =
         0.05998    0.01183    0.01651   -0.00203
H2A   2    0.579837   -0.001605    0.493539    11.00000    0.14275
HKLF    4




REM  Octyl_Mo in P2(1)/n
REM R1 =  0.0647 for    1661 Fo > 4sig(Fo)  and  0.0848 for all    2261 data
REM    151 parameters refined using      0 restraints

END

WGHT      0.1059      0.2138

REM Highest difference peak  0.182,  deepest hole -0.205,  1-sigma level  0.043
Q1    1   0.6382  1.0065  0.0321  11.00000  0.05    0.18
Q2    1   0.6968  1.0074 -0.1000  11.00000  0.05    0.18
Q3    1   0.5192  0.4846  0.3430  11.00000  0.05    0.17
Q4    1   0.6063  0.6469  0.2560  11.00000  0.05    0.16
Q5    1   0.5541  0.9849  0.1582  11.00000  0.05    0.16
;
_shelx_res_checksum              29042

_shelx_hkl_file                  
;
   0   0  -2 3.06712 7.66381   2
   0   0   2 19.1076 10.8702   4
   0   0  -2 8.36212 12.9275   4
   0   0  -3 42.8684 16.2241   4
   0   0  -3 2.37398 15.0452   2
   0   0  -4 1411.13 115.813   4
   0   0  -4 1278.47 94.7113   2
   0   0  -4 1505.23 112.566   3
   0   0  -5 34.0472 26.1674   2
   0   0   5 46.6793 28.7953   2
   0   0  -5-19.7179 28.7975   3
   0   0  -5-16.9261 25.3923   4
   0   0  -6 4961.70 259.311   4
   0   0  -6 4385.00 229.123   3
   0   0  -6 4627.32 219.879   2
   0   0   6 4825.42 239.578   2
   0   0  -7-18.6753 28.8633   2
   0   0  -7 27.4710 35.9030   3
   0   0   7 14.6355 26.9497   2
   0   0  -7 15.0770 37.4635   4
   0   0  -8 16316.1 476.120   2
   0   0  -8 17422.5 525.235   3
   0   0  -8 17524.7 558.211   4
   0   0  -9 1.49096 52.5042   4
   0   0   9 66.6788 60.9425   2
   0   0  -9-39.4736 42.0677   2
   0   0  -9 47.6013 51.2936   3
   0   0  10 29428.4 775.749   2
   0   0 -10 28999.7 709.912   2
   0   0 -10 28893.4 759.689   3
   0   0 -10 31428.3 849.499   4
   0   0 -11 24.4065 51.6096   2
   0   0 -11 26.3208 68.3791   4
   0   0 -11-97.6908 60.3132   3
   0   0 -12 2897.29 290.805   4
   0   0 -12 3455.11 294.895   3
   0   0 -12 3251.37 262.321   2
   0   0 -13 12.0503 50.7069   2
   0   0 -13-1.13269 54.3781   3
   0   0 -13 84.6864 75.2493   4
   0   0 -14 97.7640 80.8913   3
   0   0 -14 48.0710 56.9671   4
   0   0 -14 73.6795 48.4264   2
   0   0 -15-76.6025 81.7245   4
   0   0 -15 1.57577 38.1401   2
   0   0 -15-30.7202 56.3351   3
   0   0 -16 4528.58 383.181   3
   0   0 -16 5335.59 397.425   2
   0   0 -16 5326.52 444.354   4
   0   0 -17 39.6036 63.2385   3
   0   0 -17-52.1422 71.5447   4
   0   0 -17 23.7012 47.7803   2
   0   0 -18 192.191 123.162   3
   0   0 -18-12.2720 54.0940   2
   0   0 -18 154.698 127.372   4
   0   0 -19 126.081 86.7628   3
   0   0 -19 47.7918 82.4298   2
   0   0 -19-50.9837 63.9803   4
   0   0 -20 321.624 159.660   1
   0   0 -20 361.027 153.514   4
   0   0 -20 352.532 141.596   2
   0   0 -20 281.604 133.561   3
   0   1   0-8.97346 17.4794   1
   0  -1   0 14.2373 19.5557   2
   0   1   0-1.61661 12.3073   2
   0   1   1 671.579 59.8397   1
   0   1  -1 809.571 58.6782   2
   0  -1  -1 745.340 72.8938   2
   0   1   1 771.793 73.4424   2
   0  -1  -1 596.003 61.3295   1
   0  -1  -2 3.75445 16.6765   2
   0   1   2 9.02675 12.8903   1
   0   1  -2 23.1918 18.5834   4
   0   1   2 46.6408 29.4695   2
   0  -1  -2 44.3573 22.6820   1
   0  -1   3 154046. 1156.16   4
   0   1   3 157360. 1159.42   4
   0  -1  -3 154367. 961.141   1
   0   1  -3 155554. 1183.50   4
   0  -1   4 351007. 1939.97   4
   0   1  -4 350153. 1964.00   4
   0   1   5 3032.97 202.950   4
   0   1   5 3125.74 210.802   2
   0   1  -5 3330.26 212.027   4
   0  -1  -5 3104.18 202.328   2
   0   1  -5 3177.19 137.958   2
   0  -1  -5 3123.83 115.378   3
   0  -1   5 3360.97 212.313   4
   0  -1  -5 2905.02 163.976   1
   0  -1  -6 974.363 76.3232   3
   0  -1   6 1143.94 140.288   4
   0  -1  -6 973.394 104.556   1
   0   1  -6 867.156 81.4138   2
   0  -1  -6 751.997 100.993   4
   0   1  -6 1137.56 138.823   4
   0   1   6 894.817 120.318   4
   0  -1  -6 840.099 111.446   2
   0  -1  -7 6493.01 224.456   3
   0  -1  -7 6805.20 334.334   2
   0  -1   7 7447.06 384.151   4
   0  -1   7 5652.64 241.102   2
   0   1  -7 6766.51 347.132   4
   0   1  -7 6532.26 238.771   2
   0  -1  -7 7286.09 317.023   1
   0  -1  -7 6212.72 323.138   4
   0  -1   8 7206.24 401.257   4
   0  -1  -8 7191.66 337.757   1
   0   1  -8 7162.89 376.743   4
   0  -1  -8 5888.54 336.159   4
   0  -1  -8 6901.53 260.334   3
   0   1  -8 6778.22 264.017   2
   0  -1  -8 5918.26 330.052   2
   0  -1   8 6875.59 301.859   2
   0   1  -9 1437.93 194.197   3
   0   1  -9 1577.43 135.954   2
   0  -1  -9 1364.82 165.908   2
   0  -1  -9 1436.21 176.894   4
   0  -1   9 1458.04 151.662   2
   0  -1  -9 1558.02 133.499   3
   0  -1  -9 1469.97 164.512   1
   0   1  -9 1464.90 183.204   4
   0   1 -10 6642.76 395.507   4
   0  -1  10 6721.90 349.045   2
   0   1 -10 7151.63 314.559   2
   0  -1 -10 6238.67 390.148   4
   0  -1 -10 7280.34 381.497   1
   0  -1 -10 6910.16 299.021   3
   0  -1 -10 5781.19 360.204   2
   0   1 -10 6675.54 425.444   3
   0   1 -11 202.217 84.7246   3
   0   1 -11 217.654 63.0672   2
   0  -1 -11 180.625 56.0000   3
   0  -1 -11 357.005 106.848   2
   0  -1 -11 407.981 101.201   1
   0   1 -11 355.014 107.351   4
   0  -1  11 346.308 110.223   2
   0  -1 -11 206.663 83.4097   4
   0  -1 -12 120.908 70.3909   1
   0  -1 -12 109.548 63.9146   4
   0  -1 -12 0.99202 33.5653   3
   0  -1 -12 31.8559 49.8065   2
   0   1 -12 229.995 105.267   3
   0   1 -12 77.0265 55.1190   2
   0  -1  12 67.0196 49.5464   2
   0   1 -12 78.5585 71.6236   4
   0   1 -13-3.60777 30.3789   2
   0  -1  13-4.79379 50.9066   2
   0  -1 -13-28.4967 42.7713   2
   0  -1 -13-28.7973 41.1823   4
   0  -1 -13 30.3184 57.7235   3
   0   1 -13 64.0359 78.4461   3
   0   1 -13 21.1731 47.7791   4
   0  -1 -13 28.5351 58.6130   1
   0   1 -14 5756.03 332.475   2
   0   1 -14 5167.30 441.111   3
   0  -1 -14 5445.84 407.070   1
   0  -1 -14 4898.48 409.074   4
   0  -1 -14 4919.10 392.989   2
   0   1 -14 5217.59 406.336   4
   0  -1 -14 4493.06 308.133   3
   0  -1 -15 4598.21 405.205   2
   0  -1 -15 5168.44 440.749   4
   0   1 -15 4835.79 442.642   3
   0   1 -15 4639.36 401.338   4
   0  -1 -15 3586.98 287.424   3
   0  -1 -15 4141.37 366.981   1
   0   1 -15 4551.20 313.700   2
   0  -1 -16 25.9479 58.5512   3
   0  -1 -16 92.8943 93.0956   2
   0   1 -16 175.663 108.511   3
   0   1 -16 51.7805 66.8127   2
   0  -1 -16 16.9515 54.6808   4
   0   1 -16 150.970 116.960   4
   0  -1 -16 88.9473 76.0392   1
   0   1 -17 265.413 123.868   3
   0   1 -17 169.828 93.2341   2
   0  -1 -17 371.555 136.073   1
   0  -1 -17 208.539 90.1072   3
   0  -1 -17 274.945 125.959   2
   0   1 -17 145.276 101.299   4
   0  -1 -18 853.356 205.988   2
   0  -1 -18 366.520 100.281   3
   0   1 -18 297.324 119.342   4
   0   1 -18 437.196 161.473   3
   0  -1 -18 835.763 193.805   1
   0   1 -18 622.792 141.480   2
   0  -1 -19 52.9780 73.9438   2
   0  -1 -19 56.2761 77.5215   1
   0  -1 -19 82.4843 68.9096   3
   0   1 -19 139.073 122.990   3
   0   1 -19-29.1107 59.9352   4
   0   1 -20 270.790 157.798   3
   0   1 -20 511.761 187.122   4
   0  -1 -20 115.894 117.102   2
   0  -1 -20 132.096 70.9374   3
   0  -1 -20 253.215 119.808   1
   0   2   0 22685.2 499.020   2
   0  -2   0 23849.1 501.431   2
   0   2  -1 3112.13 173.393   2
   0  -2  -1 3845.02 215.133   2
   0  -2  -1 3772.11 233.879   1
   0   2  -1 3723.54 252.757   1
   0   2   1 3742.83 209.108   1
   0   2  -2 25223.5 473.560   2
   0   2   2 25814.3 502.863   1
   0   2   2 24707.3 592.220   2
   0  -2  -2 25791.0 589.069   2
   0  -2  -2 24999.9 563.538   1
   0   2  -2 26738.4 740.266   1
   0  -2  -3 9321.70 331.244   1
   0   2  -3 10511.2 382.166   4
   0  -2  -3 10741.5 401.075   2
   0   2   3 9802.81 395.404   2
   0   2   3 10975.3 316.241   1
   0   2  -3 10507.3 281.976   2
   0   2   4 23589.8 463.928   1
   0   2   4 23242.9 652.056   2
   0  -2  -4 22271.1 514.060   1
   0   2  -4 23424.8 389.589   2
   0   2  -4 24126.3 616.904   4
   0   2  -5 3622.52 244.396   4
   0  -2  -5 3571.89 209.530   1
   0  -2  -5 3622.31 260.518   2
   0   2   5 3527.71 190.926   1
   0   2  -5 3606.15 140.859   2
   0   2   6 34514.0 648.233   1
   0  -2  -6 33051.6 658.281   1
   0  -2   6 31645.4 717.839   4
   0   2  -6 35455.0 811.073   4
   0   2  -7 101021. 1395.91   4
   0  -2  -7 100225. 1223.43   1
   0  -2   7 98169.1 1348.27   4
   0  -2  -8 10644.6 505.866   2
   0  -2   8 11402.4 489.434   4
   0   2  -8 8692.07 260.570   2
   0  -2  -8 10033.8 400.798   1
   0   2  -8 12656.6 540.085   4
   0   2  -9 3097.45 159.219   2
   0  -2  -9 3655.27 309.623   2
   0   2  -9 3589.17 304.392   4
   0  -2  -9 3123.16 234.618   1
   0  -2  -9 2646.63 137.224   3
   0   2 -10 1905.05 258.970   3
   0  -2 -10 1472.89 170.749   1
   0   2 -10 1710.31 124.628   2
   0  -2 -10 1800.45 231.668   2
   0  -2 -10 1398.75 112.021   3
   0   2 -11 252.211 124.434   3
   0  -2 -11 125.699 86.6242   2
   0   2 -11 208.407 50.0693   2
   0  -2 -11 128.851 39.2504   3
   0   2 -11 327.944 107.766   4
   0  -2 -11 200.835 76.2298   1
   0   2 -12 157.626 46.9985   2
   0  -2 -12 177.220 87.5940   2
   0   2 -12 236.277 115.222   3
   0  -2 -12 219.580 56.1662   3
   0   2 -12 158.184 62.3957   4
   0  -2 -12 293.230 103.001   1
   0  -2 -13 294.126 113.257   2
   0  -2 -13 101.191 49.1961   3
   0   2 -13 102.540 83.9303   4
   0   2 -13 111.930 71.1300   3
   0   2 -13 196.296 53.3486   2
   0  -2 -13 101.179 55.5855   1
   0  -2 -14 114.639 97.8351   2
   0  -2 -14 43.8636 45.5078   1
   0   2 -14 134.091 47.4955   2
   0   2 -14 105.839 106.023   3
   0  -2 -14 169.809 52.5749   3
   0   2 -14 219.986 99.4027   4
   0  -2 -15 715.388 183.356   2
   0  -2 -15 415.351 125.001   1
   0   2 -15 282.217 132.037   3
   0   2 -15 941.011 186.358   4
   0  -2 -15 502.769 93.2063   3
   0  -2 -16 1427.65 217.631   1
   0  -2 -16 622.069 105.974   3
   0  -2 -16 1172.37 234.660   2
   0   2 -16 1210.78 221.124   4
   0   2 -16 1525.17 299.259   3
   0   2 -17 932.715 205.925   4
   0  -2 -17 720.159 204.910   2
   0  -2 -17 862.478 185.427   1
   0   2 -18 1060.12 222.238   4
   0  -2 -18 523.138 185.505   2
   0  -2 -18 818.716 183.702   1
   0   2 -18 619.618 212.975   3
   0   2 -19 394.699 172.405   4
   0  -2 -19 104.843 113.035   2
   0  -2 -19 87.9865 92.3844   1
   0   2 -19 96.3487 172.410   3
   0   3   0-10.4774 35.9940   2
   0   3   0-1.11425 39.6738   1
   0   3  -1 3563.47 240.292   2
   0   3   1 4284.96 285.153   1
   0   3  -1 3869.00 324.212   1
   0   3  -2 3127.56 295.137   1
   0  -3  -2 3227.23 250.532   2
   0   3   2 3712.85 240.008   1
   0   3  -2 2998.55 213.176   2
   0   3  -3 805.255 129.128   4
   0  -3  -3 1061.14 155.861   2
   0  -3  -3 940.277 144.630   1
   0   3  -3 816.872 105.784   2
   0   3   3 893.243 116.130   1
   0  -3  -4 1909.50 210.189   2
   0   3   4 2298.13 178.214   1
   0   3  -4 2262.21 225.184   4
   0   3  -4 2250.51 162.171   2
   0  -3  -4 2560.33 225.158   1
   0   3  -5 175.281 51.5835   2
   0   3   5 95.3121 30.7669   3
   0   3  -5 201.199 78.6083   4
   0  -3  -5 286.853 88.0995   1
   0   3   5 119.516 46.4885   1
   0  -3  -5 141.617 61.5854   2
   0   3   6 18.5235 31.4128   1
   0  -3  -6 45.0156 46.5055   1
   0   3  -6 49.4811 39.8013   4
   0  -3  -6-18.5685 50.7936   2
   0   3  -6 20.8288 27.1197   2
   0   3  -7 851.259 152.638   4
   0  -3  -7 779.064 125.282   1
   0   3  -7 588.159 67.3662   2
   0  -3  -7 784.147 159.020   2
   0   3   7 641.638 107.516   1
   0   3  -8 6465.84 412.418   4
   0  -3  -8 4477.04 308.882   1
   0   3  -8 3449.73 143.291   2
   0  -3  -8 5740.78 415.658   2
   0   3  -8 3284.45 169.129   2
   0   3  -9 2385.09 313.173   3
   0   3  -9 2918.29 289.029   4
   0  -3  -9 2454.28 285.835   2
   0  -3  -9 2123.29 218.757   1
   0  -3 -10 2484.02 310.018   2
   0  -3 -10 2971.58 271.727   1
   0   3 -10 3486.52 331.032   4
   0   3 -10 3576.03 392.200   3
   0   3 -11 1368.27 263.568   3
   0  -3 -11 1442.84 242.499   2
   0  -3 -11 1349.70 188.737   1
   0   3 -11 1658.66 241.275   4
   0   3 -12-44.4324 56.9069   4
   0   3 -12 154.158 113.785   3
   0  -3 -12 172.611 112.195   2
   0  -3 -12 184.797 90.6596   1
   0   3 -13 1328.38 267.358   3
   0  -3 -13 1398.17 221.173   1
   0   3 -13 1382.87 232.864   4
   0  -3 -13 962.586 219.844   2
   0   3 -14 418.954 148.970   4
   0  -3 -14 83.5698 69.7717   1
   0   3 -14 143.713 125.243   3
   0  -3 -14 446.322 149.900   2
   0  -3 -15 191.198 101.273   1
   0   3 -15-38.7518 81.6904   4
   0  -3 -15 13.3362 83.4215   2
   0   3 -15 310.174 160.758   3
   0   3 -16 149.266 145.580   3
   0   3 -16 38.0043 63.9808   4
   0  -3 -16 75.5937 120.746   1
   0  -3 -16-49.5832 83.3179   2
   0  -3 -17 77.5633 99.5415   2
   0   3 -17 228.793 160.806   3
   0  -3 -17 166.028 113.651   1
   0   3 -17 185.819 113.272   4
   0  -4  -3 668.511 155.489   1
   0   4   3 541.304 100.884   3
   0  -4  -3 621.346 144.684   2
   0   4  -3 180.851 79.1291   4
   0  -4  -4 1970.52 237.580   2
   0  -4  -4 2270.34 277.041   1
   0   4   4 1854.81 161.327   3
   0  -4  -5 883.452 166.614   1
   0   4  -5 1006.24 191.527   4
   0   4   5 809.776 89.3219   3
   0  -4  -5 1088.17 183.774   2
   0  -4  -6 295.206 102.917   2
   0   4  -6 247.627 126.784   3
   0  -4  -6 458.811 122.348   1
   0   4  -6 441.200 118.543   4
   0  -4  -7 773.957 180.907   2
   0   4  -7 662.276 161.939   4
   0  -4  -7 478.856 128.101   1
   0   4  -7 703.810 185.774   3
   0   4  -8 1543.17 250.034   4
   0   4  -8 1472.17 262.572   3
   0  -4  -8 1540.84 227.414   1
   0  -4  -8 1796.12 288.954   2
   0   4  -9 495.743 151.626   4
   0   4  -9 507.019 168.001   3
   0  -4  -9 732.966 151.257   1
   0  -4  -9 992.339 216.976   2
   0  -4 -10 10.8710 69.2084   2
   0  -4 -10 44.9613 70.3612   1
   0   4 -10-30.4884 70.9977   4
   0   4 -10 32.8028 64.3141   3
   0  -4 -11 99.1674 86.4410   1
   0  -4 -11 16.1285 86.0595   2
   0   4 -11 78.2019 90.5657   4
   0   4 -11 121.632 122.206   3
   0  -4 -12 107.438 66.5142   2
   0  -4 -12 260.366 131.396   1
   0   4 -12 694.625 197.050   4
   0   4 -12 596.785 202.706   3
   0  -4 -13 57.7154 67.2750   1
   0   4 -13-47.5081 68.3099   4
   0   4 -13-18.0243 75.9978   3
   0  -4 -13-44.3915 59.4653   2
   0   4 -14 1743.52 299.685   4
   0  -4 -14 958.527 205.441   1
   0   4 -14 1549.07 333.829   3
   0  -4 -14 1117.42 259.733   2
   0   4 -15-90.4928 115.052   3
   0  -4 -15 43.7682 116.747   2
   0  -4 -15 4.93354 101.769   1
   0   5   0 112.075 103.173   3
   0   5  -1 3485.24 347.212   3
   0   5   1 3488.25 308.557   3
   0   5   2 500.393 125.524   3
   0   5  -2 785.068 200.327   4
   0   5  -2 566.934 165.474   3
   0   5  -3 1150.27 226.163   4
   0   5  -3 887.598 192.248   3
   0   5  -4 194.506 125.905   4
   0   5  -4 129.011 99.0827   3
   0   5  -5 81.6764 110.335   4
   0   5  -5 197.456 140.269   3
   0   5  -6 449.255 158.952   3
   0  -5  -6 213.455 101.415   2
   0  -5  -6 318.235 130.915   1
   0   5  -6 280.851 141.902   4
   0  -5  -7-8.59596 59.2622   2
   0   5  -7 89.4055 107.081   3
   0   5  -8 346.973 171.131   3
   0  -5  -8 324.707 139.698   2
   0  -5  -9 83.0070 68.9802   2
   0   5  -9 196.243 135.695   3
   0  -5 -10 129.885 116.716   2
   0   5 -10 68.2236 92.3740   3
   0   5 -11-12.8745 104.890   3
   0  -5 -11 5.96169 63.6080   2
   1   0 -20 10.7157 94.9178   2
   1   0 -20 169.093 107.562   3
   1   0 -20-15.1383 81.0735   4
   1   0 -19 793.207 201.584   4
   1   0 -19 570.416 160.639   2
   1   0 -19 758.865 192.439   3
   1   0 -18 179.009 94.4779   2
   1   0 -18 250.221 108.974   4
   1   0 -18 172.936 134.417   3
   1   0 -17 1953.57 282.527   4
   1   0 -17 1984.69 264.094   2
   1   0 -17 2033.09 281.962   3
   1   0 -16 69.1348 73.6388   4
   1   0 -16 154.578 88.5242   3
   1   0 -16-41.6649 58.7530   2
   1   0 -15 1495.45 220.176   3
   1   0 -15 1516.86 249.547   4
   1   0 -15 1209.41 191.894   2
   1   0 -14-6.66271 49.7014   4
   1   0 -14 41.1059 47.3397   3
   1   0 -14 45.0743 64.3032   2
   1   0 -13 18143.4 670.498   2
   1   0 -13 18042.3 699.663   3
   1   0 -13 18214.2 763.866   4
   1   0 -12-81.4383 63.9103   2
   1   0 -12-40.0984 71.1840   3
   1   0 -12-29.6895 64.3999   4
   1   0 -11 70489.8 1233.50   2
   1   0 -11 70343.6 1268.46   3
   1   0 -11 69252.8 1329.18   4
   1   0 -10 41.4286 45.5267   2
   1   0 -10 45.1497 33.2296   3
   1   0 -10-46.2250 76.5264   4
  -1   0   9 20836.2 649.389   2
   1   0  -9 21042.7 684.381   4
   1   0  -9 19750.3 602.102   2
   1   0  -8-7.09853 42.8374   4
   1   0  -8-30.3681 42.7269   2
  -1   0   8 41.2378 42.7502   2
   1   0  -7 27179.8 627.864   2
   1   0  -7 27898.0 691.307   4
  -1   0   7 29139.0 678.444   2
   1   0  -6-8.67328 33.2766   2
   1   0  -6-30.7805 40.7118   4
  -1   0   6 20.2522 24.7512   2
   1   0  -5 10258.5 373.933   4
   1   0  -5 9369.99 326.310   2
  -1   0   5 10296.6 379.754   4
   1   0  -4-8.67303 25.1996   4
  -1   0   4 17.4714 27.5804   4
   1   0  -4-4.75051 24.8335   2
   1   0  -3 30383.8 487.130   2
   1   0  -3 31431.5 531.961   4
  -1   0   3 31125.0 532.935   4
  -1   0   2 5.57958 13.8498   4
   1   0  -2 2.14342 14.0133   4
   1   0  -2 24.3555 19.1630   2
   1   0  -1 4.20415 6.99343   4
   1   0  -1 5.79161 7.23160   2
  -1   0   1 9.61840 10.7807   2
  -1   0   1 17.0692 12.0666   4
  -1   0  -1-1.61546 4.11421   3
   1   0   1 8.63830 8.24102   1
  -1   0  -1-0.19997 3.46168   1
   1   0   1 4.93519 6.69689   3
  -1   0  -2 6.35694 8.60661   2
   1   0   2 21.1212 12.4775   3
  -1   0  -2-12.5028 12.7728   3
  -1   0  -2-17.7159 14.2137   1
   1   0   3 51422.9 582.248   3
  -1   0  -3 50454.4 537.425   4
  -1   0  -3 50153.0 545.435   3
  -1   0  -4 25.3809 25.4192   3
   1   0   4 47.9917 27.2661   3
  -1   0  -4 4.60294 15.7321   2
  -1   0  -4 10.3733 16.9478   4
   1   0   4 33.3770 24.5124   2
  -1   0  -5 8680.14 255.479   2
   1   0   5 8096.14 259.581   2
  -1   0  -5 8277.13 290.007   3
  -1   0  -5 7576.25 276.416   4
   1   0   5 8148.11 300.011   3
  -1   0  -6-0.30494 26.4715   4
   1   0   6 21.4714 27.6423   2
  -1   0  -6 44.6131 33.5986   3
  -1   0  -6-8.80116 17.9571   2
  -1   0  -7 6442.74 261.506   2
  -1   0  -7 5982.91 297.770   4
   1   0   7 6674.34 289.824   2
  -1   0  -7 6133.61 291.399   3
  -1   0  -8 17.4265 24.8981   4
  -1   0  -8 33.5708 35.9814   2
  -1   0  -8-5.41252 29.6275   3
   1   0   8-13.9721 32.7756   4
   1   0   8-9.32998 26.9077   2
  -1   0  -9 11161.3 450.045   3
  -1   0  -9 10304.3 447.425   4
  -1   0  -9 10235.2 372.671   2
   1   0   9 10486.4 423.116   2
   1   0  10 50.9536 51.4204   2
  -1   0 -10 19.6200 37.8683   3
  -1   0 -10-40.6252 48.7665   4
  -1   0 -10-6.67022 20.9882   2
  -1   0 -11 21381.7 688.535   3
  -1   0 -11 20490.5 697.740   4
  -1   0 -12 30.2013 36.1299   3
  -1   0 -12 116.513 51.8922   2
  -1   0 -13 879.117 150.805   3
  -1   0 -13 858.602 136.897   2
  -1   0 -13 773.082 153.407   4
  -1   0 -14-2.74839 41.6348   3
  -1   0 -14 90.3844 79.6547   4
  -1   0 -14 8.41028 45.7987   2
  -1   0 -15 90.1083 86.5402   4
  -1   0 -15 246.446 76.4936   2
  -1   0 -15 166.454 89.7602   3
  -1   0 -16 180.817 98.1386   4
  -1   0 -16 177.326 86.0684   2
  -1   0 -16 87.3983 79.3952   3
  -1   0 -17 2381.50 274.413   2
  -1   0 -17 2388.10 294.335   3
  -1   0 -17 2193.37 301.559   4
  -1   0 -18 88.5839 90.9128   1
  -1   0 -18 5.87601 62.8097   3
  -1   0 -18 32.2570 54.6291   2
  -1   0 -18 68.6790 94.9907   4
  -1   0 -19 528.360 155.104   3
  -1   0 -19 275.527 144.564   1
  -1   0 -19 267.476 119.101   2
  -1   0 -19 472.265 163.649   4
  -1   0 -20 104.437 97.1165   2
  -1   0 -20 12.9391 66.2816   3
   1  -1 -20 306.155 159.633   2
   1   1 -20 588.502 192.282   4
   1  -1 -20 467.885 145.889   1
   1  -1 -20 299.896 110.996   3
   1  -1 -19 584.598 169.243   1
   1  -1 -19 224.511 94.0283   3
   1   1 -19 615.075 188.765   3
   1  -1 -19 387.372 145.876   2
   1   1 -19 500.582 176.265   4
   1  -1 -19 358.653 153.475   4
   1   1 -18 498.037 163.718   4
   1  -1 -18 323.781 112.694   4
   1  -1 -18 341.299 103.108   3
   1   1 -18 343.879 115.301   2
   1  -1 -18 273.671 109.696   1
   1  -1 -18 341.151 156.851   2
   1  -1 -17 590.699 157.579   4
   1   1 -17 1021.20 232.983   3
   1  -1 -17 549.371 171.238   2
   1   1 -17 820.363 194.756   4
   1  -1 -17 689.697 136.871   3
   1  -1 -17 509.573 143.944   1
   1   1 -17 1038.94 172.097   2
   1   1 -16 2903.85 341.781   4
   1  -1 -16 2759.84 314.722   1
   1   1 -16 2648.58 346.179   3
   1  -1 -16 2428.74 319.948   4
   1   1 -16 2684.73 271.932   2
   1  -1 -16 3046.77 343.903   2
   1  -1 -16 3088.89 271.971   3
   1  -1 -15 69.7373 78.1948   2
   1   1 -15 23.8849 55.0526   2
   1  -1 -15 112.151 74.7328   3
   1  -1 -15 8.59465 59.2972   1
   1  -1 -15 9.62085 98.6109   4
   1   1 -15 14.0057 75.8879   3
   1   1 -15-70.3780 68.5280   4
   1  -1 -14 165.334 103.941   4
   1   1 -14 150.157 62.9467   2
   1   1 -14 104.433 64.3992   3
   1   1 -14 141.437 91.3147   4
   1  -1 -14 361.178 129.745   1
   1  -1 -14 56.7141 46.1797   3
   1  -1 -14 30.3069 60.8076   2
   1   1 -13 1795.76 262.427   3
   1  -1 -13 1584.34 224.842   2
   1  -1 -13 1693.17 177.678   3
   1   1 -13 1591.42 186.208   2
   1   1 -13 1560.79 228.550   4
   1  -1 -13 1785.90 246.846   4
   1  -1 -12 1724.23 175.826   3
   1   1 -12 1597.42 232.481   3
   1  -1 -12 1184.19 193.861   2
   1   1 -12 1218.45 206.796   4
  -1  -1  12 1396.99 200.299   2
   1  -1 -12 1053.82 179.618   4
   1   1 -12 1500.26 177.026   2
   1   1 -11 1049.14 140.600   2
   1   1 -11 907.814 175.955   4
  -1  -1  11 761.675 145.477   2
   1  -1 -11 978.408 127.850   3
   1  -1 -11 626.553 133.569   2
   1  -1 -11 797.019 145.245   4
   1   1 -10 940.253 129.702   2
   1   1 -10 909.060 159.226   4
   1  -1 -10 1145.63 129.165   3
   1  -1 -10 1047.96 156.614   2
  -1  -1  10 971.938 160.084   2
   1  -1 -10 1079.87 171.921   4
   1   1  -9 4550.42 263.723   2
   1  -1  -9 4155.32 304.003   4
   1  -1  -9 4090.19 302.449   2
   1  -1  -9 4335.68 225.233   3
   1   1  -9 4610.49 331.047   4
  -1  -1   9 4141.84 271.011   2
   1  -1  -8 557.187 101.076   2
   1  -1  -8 651.297 120.988   4
   1   1  -8 796.156 110.943   2
   1   1  -8 822.594 144.890   4
  -1  -1   8 735.730 132.899   4
   1  -1  -8 775.472 90.8193   3
  -1   1   7 82757.8 1235.85   4
   1  -1  -7 82012.7 1207.03   2
  -1  -1   7 90264.5 1347.84   4
   1   1  -7 88186.0 1032.00   2
   1  -1  -7 84128.7 1214.31   4
   1  -1  -7 88263.5 828.063   3
   1   1  -7 89209.9 1303.65   4
   1  -1  -6 183.947 49.6903   2
   1   1  -6 321.507 81.3879   4
  -1   1   6 258.939 72.7366   4
   1  -1  -6 246.887 72.2940   4
   1  -1  -6 272.049 39.3535   3
   1   1  -6 233.627 54.7115   2
  -1  -1   6 305.214 81.6182   4
   1  -1  -5 11705.7 379.906   4
  -1   1   5 11583.2 421.104   2
   1  -1  -5 10897.2 205.313   3
   1  -1  -5 12318.9 323.541   1
   1  -1  -5 11120.1 403.994   2
   1   1  -5 11348.3 329.379   2
  -1   1   5 11367.0 400.673   4
   1   1  -5 11874.8 425.395   4
  -1  -1   5 12607.9 432.280   4
   1  -1  -4 12438.6 398.593   2
   1  -1  -4 13435.6 290.334   1
  -1  -1   4 12309.8 398.598   4
   1   1  -4 12632.6 408.969   4
  -1   1   4 13000.9 371.597   4
   1  -1  -4 12552.0 363.693   4
  -1   1   4 13592.5 430.652   2
   1  -1  -2 20566.4 429.875   2
  -1   1   2 21464.1 373.770   4
  -1   1   2 21778.2 455.310   2
  -1   1   2 20908.2 239.421   1
   1   1  -2 21483.5 462.519   4
   1  -1  -2 20967.2 256.746   1
  -1  -1   1 122244. 1213.33   1
  -1   1   1 118772. 972.154   2
   1   1  -1 123316. 1148.27   1
   1  -1  -1 117802. 930.867   2
   1  -1   0 451.743 51.1128   2
  -1   1   0 358.906 45.1265   3
   1   1   0 382.765 67.0044   1
  -1  -1   0 459.688 68.2521   1
  -1   1   0 436.913 54.3005   2
   1   1   0 389.145 50.5573   2
  -1   1  -1 69549.3 556.293   2
  -1  -1  -1 71221.2 749.024   1
   1  -1   1 72056.9 507.811   2
   1   1   1 75172.6 733.692   2
  -1   1  -1 73360.2 739.321   3
   1   1   1 72260.1 734.521   1
  -1  -1  -1 73120.6 718.408   2
  -1  -1  -2 111958. 904.475   1
   1   1   2 110460. 775.590   3
  -1   1  -2 112883. 1030.36   3
   1   1   2 116259. 994.480   2
   1  -1   2 114377. 705.335   4
   1   1   2 117342. 900.330   1
  -1   1  -2 115039. 731.995   4
  -1  -1  -3 166506. 1149.59   1
  -1   1  -3 173414. 1400.13   3
   1   1   3 173720. 1301.32   2
   1  -1   3 171104. 1067.23   4
  -1  -1  -3 170617. 956.028   3
   1   1   3 170392. 848.814   3
   1   1   3 170085. 1128.45   1
  -1   1  -3 171667. 1060.03   4
   1  -1   4 316309. 1702.21   4
   1   1   4 312448. 1919.29   2
   1   1   5 40941.8 744.231   4
  -1  -1  -5 41460.1 726.036   2
   1   1   5 43681.2 689.314   1
  -1  -1  -5 42483.3 668.044   1
   1   1   5 43079.1 518.759   3
  -1   1  -5 40383.9 796.161   3
  -1   1  -5 41680.5 665.588   4
   1  -1   5 45611.0 759.771   4
  -1  -1  -5 41399.8 511.901   3
  -1  -1  -6 16607.3 354.179   3
  -1   1  -6 16963.8 258.259   2
  -1  -1  -6 16122.2 485.596   2
   1   1   6 17236.0 385.646   3
   1   1   6 17225.0 504.403   4
  -1  -1  -6 17382.4 461.142   1
  -1   1  -6 16891.7 465.747   4
  -1   1  -6 16672.6 540.303   3
   1  -1   6 17466.6 505.080   4
  -1  -1  -7 12858.8 339.253   3
  -1  -1  -7 13134.3 466.230   2
  -1   1  -7 14118.9 281.741   2
   1   1   7 13624.0 375.899   3
  -1  -1  -7 13224.3 433.050   1
   1  -1   7 13253.4 478.744   4
  -1   1  -7 14071.4 522.882   3
  -1   1  -7 13379.5 446.095   4
   1  -1   7 12687.0 325.889   2
  -1   1  -8 29876.6 464.497   2
  -1   1  -8 30081.2 801.170   3
  -1  -1  -8 29514.7 693.299   1
   1  -1   8 29847.8 554.930   2
   1  -1   8 32405.3 801.178   4
  -1  -1  -8 27450.8 543.836   3
  -1   1  -8 29642.8 703.044   4
  -1  -1  -8 27168.4 702.482   2
  -1  -1  -9 2067.05 209.709   2
  -1  -1  -9 2341.13 210.514   1
  -1  -1  -9 2072.13 157.116   3
   1  -1   9 2353.27 174.031   2
  -1   1  -9 2012.18 135.388   2
  -1   1  -9 2055.61 223.209   3
  -1   1  -9 2110.23 207.489   4
  -1  -1 -10 145.199 52.3845   3
  -1   1 -10 37.2200 46.3233   4
  -1   1 -10 61.5627 34.1462   2
   1  -1  10-26.9933 27.6284   2
  -1  -1 -10 35.9250 47.2849   2
  -1  -1 -10 21.0702 41.2581   1
  -1   1 -10 161.778 91.9194   3
   1  -1  11 392.610 93.2302   2
  -1   1 -11 357.174 89.1362   4
  -1  -1 -11 363.017 113.238   2
  -1  -1 -11 300.721 94.3238   1
  -1   1 -11 230.030 87.0338   3
  -1  -1 -11 370.138 81.2057   3
  -1   1 -11 326.787 69.6744   2
  -1  -1 -12 493.638 115.878   2
   1  -1  12 616.964 128.259   2
  -1   1 -12 550.127 134.293   3
  -1   1 -12 656.886 137.259   4
  -1  -1 -12 536.183 99.9231   3
  -1   1 -12 655.813 101.967   2
  -1  -1 -12 710.929 145.068   1
  -1   1 -13 1328.57 216.439   3
  -1   1 -13 1354.08 150.417   2
   1  -1  13 1311.55 186.837   2
  -1   1 -13 1464.74 210.358   4
  -1  -1 -13 1511.27 203.402   1
  -1  -1 -13 1478.29 204.756   2
  -1  -1 -13 1384.60 164.943   3
  -1  -1 -14 562.991 111.098   3
  -1   1 -14 455.983 87.6266   2
  -1   1 -14 237.578 103.505   3
  -1  -1 -14 275.341 97.4214   1
  -1  -1 -14 706.951 157.783   2
  -1   1 -14 527.714 135.203   4
  -1   1 -15 2742.85 327.468   3
  -1   1 -15 2662.71 303.658   4
  -1  -1 -15 2370.32 280.999   1
  -1  -1 -15 2641.73 301.890   2
  -1   1 -15 2842.59 235.983   2
  -1  -1 -15 2295.22 235.947   3
  -1  -1 -16 343.603 113.034   3
  -1  -1 -16 322.916 107.754   2
  -1  -1 -16 540.624 136.259   1
  -1   1 -16 507.371 135.209   4
  -1   1 -16 554.680 120.857   2
  -1   1 -16 378.538 131.672   3
  -1   1 -17 792.035 132.768   2
  -1   1 -17 746.855 176.787   3
  -1  -1 -17 1194.09 213.825   3
  -1  -1 -17 933.570 194.035   1
  -1  -1 -17 600.500 166.441   2
  -1   1 -17 748.172 180.827   4
  -1   1 -18 174.169 126.738   3
  -1  -1 -18-11.5978 60.8522   2
  -1  -1 -18 78.1140 47.2848   3
  -1  -1 -18 66.6052 90.9834   1
  -1   1 -18 201.851 95.9359   4
  -1  -1 -19 48.9299 78.8743   2
  -1  -1 -19 22.5613 69.7666   3
  -1  -1 -19-94.0583 74.1275   1
  -1   1 -19 3.42645 87.5870   4
  -1   1 -19 156.289 127.020   3
  -1   1 -20 129.305 101.033   4
  -1  -1 -20 31.8151 68.8895   1
  -1   1 -20-55.5887 78.0835   3
  -1  -1 -20 8.03021 69.7224   3
  -1  -1 -20 221.154 143.359   2
   1   2 -19 172.025 163.384   3
   1  -2 -19 100.859 75.4748   2
   1  -2 -19 66.1334 83.2376   1
   1   2 -19 27.6359 85.3956   4
   1   2 -18 303.703 146.313   4
   1   2 -18 436.644 182.071   3
   1  -2 -18 231.739 115.299   1
   1  -2 -18 486.355 177.176   2
   1   2 -17 704.028 248.556   3
   1  -2 -17 386.110 136.019   1
   1  -2 -17 251.298 128.539   2
   1   2 -17 384.374 159.783   4
   1  -2 -16 653.090 158.484   1
   1  -2 -16 914.021 211.071   2
   1   2 -16 1031.09 252.238   3
   1  -2 -16 767.304 115.245   3
   1   2 -16 1230.31 239.188   4
   1  -2 -15 215.563 97.5619   1
   1   2 -15 214.403 77.7492   2
   1   2 -15 343.036 133.322   4
   1  -2 -15 279.570 115.724   2
   1  -2 -15 126.944 58.8767   3
   1   2 -15 418.306 155.120   3
   1   2 -14 46.7962 48.5125   2
   1  -2 -14 98.3233 77.9357   1
   1  -2 -14 88.9960 49.5520   3
   1   2 -14 193.894 111.001   4
   1  -2 -14-22.0357 46.2966   2
   1   2 -14 290.668 128.642   3
   1  -2 -13 490.617 75.1513   3
   1  -2 -13 549.716 152.633   2
   1   2 -13 610.154 143.721   4
   1   2 -13 645.813 108.251   2
   1  -2 -13 622.387 128.698   1
   1   2 -13 435.156 173.673   3
   1   2 -12 584.574 148.948   4
   1  -2 -12 675.873 81.2266   3
   1  -2 -12 508.341 110.016   1
   1   2 -12 827.288 124.715   2
   1  -2 -11 91.0765 29.3615   3
   1  -2 -11 158.695 103.721   2
   1   2 -11 87.9595 91.7814   4
   1  -2 -11 90.8720 66.1726   1
   1   2 -11 60.0265 52.8091   2
   1  -2 -10 1525.05 165.446   1
   1  -2 -10 1734.08 226.168   2
   1   2 -10 2394.05 265.552   4
   1  -2 -10 1230.58 85.0810   3
   1   2 -10 2033.90 175.557   2
   1  -2  -9 4363.78 268.882   1
   1   2  -9 3957.40 226.438   2
   1   2  -9 4894.63 366.191   4
   1  -2  -9 4001.95 329.379   2
   1   2  -8 438.743 77.3085   2
   1  -2  -8 481.449 90.6227   1
   1   2  -8 541.859 119.634   4
   1  -2  -8 542.428 123.210   2
   1  -2  -7 70134.9 1252.52   2
  -1  -2   7 72694.4 1225.65   4
   1   2  -7 75039.7 1301.37   4
   1  -2  -7 75936.2 976.402   1
   1   2  -7 68663.6 925.639   2
   1  -2  -6 730.360 131.218   2
   1   2  -6 699.091 123.317   4
  -1  -2   6 904.536 129.274   4
   1  -2  -6 820.267 98.7438   1
  -1   2   5 9.94144 16.8532   1
  -1   2   5 54.2266 29.0390   4
   1  -2  -5 94.1226 55.2767   2
   1  -2  -5 53.7686 23.9391   1
   1   2  -5 36.6522 32.9810   4
   1  -2  -4 14567.2 490.133   2
   1   2  -4 13746.1 491.016   4
  -1   2   4 13836.8 432.351   4
   1  -2  -4 13020.6 346.789   1
  -1   2   4 14546.5 325.856   1
  -1   2   4 14244.2 519.561   2
   1   2  -3 20740.3 420.848   2
  -1   2   3 22005.4 620.317   2
   1  -2  -3 22512.2 461.530   1
   1  -2  -3 21344.3 561.051   2
   1   2  -3 24952.2 789.735   1
  -1   2   3 22585.3 513.925   4
  -1   2   3 22914.0 381.763   1
   1   2  -3 23290.0 620.565   4
  -1   2   3 21244.2 288.853   3
   1   2  -2 6308.58 362.519   1
  -1   2   2 6104.34 211.759   1
   1   2  -2 5827.21 239.283   2
   1  -2  -2 5697.63 242.809   1
   1  -2  -2 5628.15 272.961   2
  -1   2   2 5686.44 295.029   2
  -1   2   2 5719.68 189.640   3
   1   2  -1 18261.1 579.839   1
   1  -2  -1 18063.3 467.089   2
  -1   2   1 16706.9 391.218   3
  -1   2   1 16853.0 472.752   2
   1   2  -1 17245.5 429.842   2
  -1   2   1 18027.1 414.787   1
   1   2   0 7.11094 19.6367   2
   1  -2   0 67.2737 33.7406   2
  -1   2   0 53.1474 32.1442   3
  -1   2   0 89.8931 33.2770   2
   1   2   0 103.444 55.4562   1
  -1   2   0 12.0679 32.7541   1
  -1  -2   0 47.1040 32.1671   1
   1  -2   1 1302.39 107.658   2
  -1   2  -1 1464.72 121.852   2
   1   2   1 1549.56 151.799   1
  -1  -2  -1 1515.68 159.470   1
  -1  -2  -1 1536.97 138.479   2
   1   2   1 1577.46 146.792   2
  -1   2  -1 1761.17 178.113   1
   1   2   2 800.414 107.889   2
  -1   2  -2 732.075 78.8920   2
  -1  -2  -2 717.255 99.6081   2
  -1  -2  -2 887.767 123.824   1
   1  -2   2 811.838 78.4084   2
   1   2   2 812.623 101.110   1
  -1   2  -3 199.627 61.1871   3
  -1   2  -3 181.187 48.9242   4
   1   2   3 228.553 54.1109   3
  -1  -2  -3 243.223 66.6866   1
   1   2   3 91.8978 44.6064   2
  -1   2  -3 151.981 38.3327   2
  -1  -2  -3 320.861 88.1422   2
   1   2   3 114.807 37.7691   1
  -1   2  -4 148.127 28.6032   2
   1   2   4 161.434 36.6920   3
  -1  -2  -4 128.634 59.0461   2
  -1  -2  -4 118.702 44.7206   1
   1   2   4 104.676 34.4358   1
  -1   2  -4 113.350 60.2637   3
  -1   2  -4 169.487 50.4603   4
  -1  -2  -5 20693.5 541.665   1
  -1  -2  -5 22163.1 640.304   2
   1   2   5 21917.9 514.114   1
  -1   2  -5 23125.1 575.377   4
   1   2   5 21069.5 336.252   3
  -1   2  -5 20469.2 664.758   3
   1  -2   5 22321.5 535.282   4
  -1   2  -6 1508.79 189.756   3
   1   2   6 1829.28 100.476   3
  -1  -2  -6 1801.38 169.063   1
   1   2   6 1896.11 160.872   1
   1  -2   6 1755.32 156.985   4
  -1  -2  -6 1760.49 191.140   2
  -1   2  -6 1656.88 162.143   4
  -1  -2  -7 39301.7 810.389   1
   1  -2   7 42867.1 839.560   4
  -1   2  -7 43210.7 859.621   4
  -1  -2  -7 39424.6 935.492   2
  -1   2  -7 41867.9 1034.16   3
   1   2   7 38907.8 780.648   1
   1   2   7 41323.9 529.778   3
  -1  -2  -8 11993.7 339.725   3
  -1   2  -8 12871.4 597.714   3
   1  -2   8 11847.3 483.016   4
  -1  -2  -8 11646.0 460.745   1
  -1  -2  -8 11781.7 533.467   2
   1   2   8 11673.0 314.202   3
  -1   2  -9 787.857 128.213   4
  -1  -2  -9 706.595 87.9337   3
  -1  -2  -9 846.692 150.869   2
  -1  -2  -9 484.006 99.8730   1
  -1   2  -9 969.551 186.893   3
  -1  -2 -10 2986.38 187.761   3
  -1  -2 -10 3072.17 259.064   1
  -1   2 -10 3393.72 280.281   4
  -1  -2 -10 3131.59 300.464   2
  -1   2 -10 4016.02 362.371   3
  -1  -2 -11 188.134 79.1303   1
  -1   2 -11 85.4495 85.8374   3
  -1  -2 -11 50.0946 52.7513   2
  -1   2 -11 36.2108 16.0698   2
  -1   2 -11 91.5676 78.4715   4
  -1  -2 -11 117.531 52.5579   3
  -1  -2 -12 6238.54 394.434   1
  -1   2 -12 6782.33 511.382   3
  -1  -2 -12 5594.39 277.789   3
  -1   2 -12 5613.83 192.048   2
  -1  -2 -12 6436.73 457.179   2
  -1   2 -13 45.2329 25.3284   2
  -1  -2 -13-29.6718 56.3845   1
  -1  -2 -13 40.0276 80.7259   2
  -1   2 -13-52.5523 80.6939   3
  -1  -2 -13-5.41948 31.4322   3
  -1   2 -13 139.734 83.4009   4
  -1   2 -14 407.104 142.955   3
  -1  -2 -14 610.358 146.702   1
  -1  -2 -14 626.570 165.745   2
  -1   2 -14 657.492 152.459   4
  -1  -2 -14 535.093 93.7600   3
  -1  -2 -15 1681.39 169.327   3
  -1   2 -15 1840.14 258.167   4
  -1  -2 -15 1879.38 274.254   2
  -1   2 -15 1768.28 292.386   3
  -1  -2 -15 1607.64 230.953   1
  -1  -2 -16 175.874 105.997   2
  -1  -2 -16 485.680 147.119   1
  -1  -2 -16 181.909 68.7408   3
  -1   2 -16 196.191 116.495   3
  -1   2 -16 114.999 78.4814   4
  -1  -2 -17 36.3229 65.2026   1
  -1   2 -17 295.696 125.962   4
  -1  -2 -17 140.165 112.396   2
  -1   2 -17 117.500 109.739   3
  -1   2 -18 768.016 235.854   3
  -1  -2 -18 332.013 130.199   1
  -1   2 -18 685.514 188.225   4
  -1  -2 -18 459.087 169.871   2
  -1  -2 -19 200.940 109.585   1
  -1  -2 -19-14.8943 67.4277   2
  -1   2 -19 67.0796 136.971   3
  -1   2 -19 296.028 133.548   4
   1   3 -17 266.952 130.582   4
   1   3 -17-81.4603 118.533   3
   1  -3 -17 33.8137 59.8844   1
   1  -3 -17 111.070 125.042   2
   1  -3 -16 3.83576 104.012   2
   1   3 -16 195.842 166.501   3
   1  -3 -16 16.2925 56.6750   1
   1   3 -16 203.642 125.427   4
   1  -3 -15-28.2804 50.7813   1
   1   3 -15 54.5103 98.9799   3
   1  -3 -15 114.078 114.192   2
   1   3 -15-1.90757 64.4997   4
   1  -3 -14 141.224 80.0838   2
   1   3 -14 46.0640 95.1190   4
   1  -3 -14 9.87791 45.7450   1
   1   3 -14-18.1323 85.0190   3
   1  -3 -13 411.300 114.865   1
   1  -3 -13 697.812 185.196   2
   1   3 -13 560.182 159.131   4
   1  -3 -12 357.333 104.745   1
   1   3 -12 362.518 134.680   4
   1  -3 -12 284.749 100.811   2
   1   3 -12 185.923 115.627   3
   1   3 -11 2451.10 176.598   2
   1  -3 -11 2584.74 248.038   1
   1  -3 -11 2762.01 321.145   2
   1  -3 -10 5574.12 355.035   1
   1  -3 -10 5756.54 453.424   2
   1   3  -9 2121.47 256.002   4
   1  -3  -9 1598.53 185.615   1
   1  -3  -9 1923.57 255.889   2
   1   3  -9 1587.15 124.648   2
   1  -3  -8 3720.09 262.822   1
   1  -3  -8 3775.98 342.728   2
   1   3  -8 3352.47 184.745   2
   1   3  -7 7218.11 442.204   4
   1  -3  -7 6359.29 336.739   1
   1   3  -7 7085.70 289.872   2
   1  -3  -7 6530.02 433.639   2
   1  -3  -6 52.4921 46.2845   1
  -1   3   6 18.0552 24.4127   1
   1   3  -6 98.3518 44.2181   2
   1  -3  -6 180.424 78.9884   2
   1   3  -6 30.8577 43.5737   4
   1   3  -5 4699.89 246.850   2
   1  -3  -5 4752.92 296.671   1
   1  -3  -5 5211.17 356.179   2
  -1   3   5 4654.54 229.067   1
   1   3  -5 4793.73 348.520   4
   1   3  -4 2084.98 225.845   4
   1   3  -4 2002.95 170.855   2
  -1   3   4 1927.08 143.317   1
   1  -3  -4 1468.51 165.705   1
  -1   3   4 1813.29 100.973   3
   1  -3  -4 2021.88 213.974   2
   1   3  -3 494.962 94.3203   2
  -1   3   3 672.301 89.6275   1
  -1   3   3 730.074 85.8704   3
   1  -3  -3 531.445 111.250   2
   1  -3  -3 585.483 110.419   1
   1   3  -3 608.569 127.377   4
  -1   3   2 3643.73 207.959   3
   1  -3  -2 3837.52 266.771   2
   1   3  -2 3639.15 246.126   2
  -1   3   2 4195.07 234.206   1
  -1   3   1 136.210 62.0109   1
   1  -3  -1 7.41302 37.5512   2
   1   3  -1 31.9788 39.2359   2
  -1   3   1 46.9711 40.4333   3
  -1   3   0 5398.03 312.003   2
   1  -3   0 6579.88 329.006   2
  -1   3   0 5632.50 309.371   3
   1   3   0 6203.77 390.711   1
  -1   3  -1 2203.26 228.037   1
   1   3   1 2127.65 215.245   1
  -1   3  -1 1796.90 170.558   2
  -1  -3  -1 2384.87 264.988   1
   1  -3   1 2176.61 174.643   2
  -1   3  -1 1779.76 183.474   3
  -1  -3  -2 4418.01 327.349   1
  -1   3  -2 4849.02 368.807   1
  -1   3  -2 3918.03 235.445   2
  -1  -3  -2 4232.51 283.707   2
   1   3   2 3970.03 274.777   1
  -1   3  -2 3995.91 294.343   3
  -1   3  -3 4366.76 232.674   2
  -1  -3  -3 4886.71 315.669   2
  -1   3  -3 4569.31 323.727   3
  -1  -3  -3 3796.63 307.963   1
   1   3   3 5116.80 296.707   1
  -1   3  -3 4291.62 280.750   4
  -1   3  -3 4905.39 415.594   1
   1   3   4 40.2161 40.7666   3
   1   3   4 110.064 53.4426   1
  -1   3  -4 165.625 56.3767   2
  -1  -3  -4 179.897 72.8614   1
  -1   3  -4 112.749 69.9126   3
  -1  -3  -4 172.849 73.0206   2
  -1   3  -4 178.436 69.3605   4
  -1  -3  -5 1110.81 162.219   1
  -1   3  -5 1206.52 183.068   3
  -1  -3  -5 1432.52 190.631   2
  -1   3  -5 1177.03 105.798   2
  -1   3  -5 1235.15 157.914   4
   1   3   5 1133.75 140.815   1
   1   3   5 831.532 104.342   3
   1   3   6 236.500 49.1858   3
  -1   3  -6 327.488 115.206   3
  -1   3  -6 295.271 49.1562   2
  -1  -3  -6 501.280 107.716   1
  -1  -3  -6 563.243 131.519   2
  -1   3  -6 535.970 111.759   4
  -1  -3  -7 864.295 143.123   1
  -1   3  -7 596.512 142.513   3
   1   3   7 570.877 51.4261   3
  -1  -3  -7 914.182 173.499   2
  -1   3  -7 763.379 131.865   4
  -1  -3  -8 7001.84 403.684   1
  -1   3  -8 7865.28 526.677   3
  -1   3  -8 8207.00 436.336   4
  -1  -3  -8 8073.86 504.750   2
  -1  -3  -9 304.712 99.7319   2
  -1   3  -9 595.461 164.930   3
  -1   3  -9 367.244 104.248   4
  -1  -3  -9 457.910 111.520   1
  -1  -3 -10 9196.25 551.531   2
  -1   3 -10 9800.53 627.064   3
  -1  -3 -10 9288.13 501.040   1
  -1   3 -11 8685.96 501.555   4
  -1  -3 -11 6675.74 488.042   2
  -1   3 -11 7969.15 585.503   3
  -1  -3 -11 6779.29 448.617   1
  -1   3 -12 205.521 119.414   3
  -1   3 -12 310.892 116.307   4
  -1  -3 -12 48.0884 55.6563   2
  -1  -3 -12 368.476 118.988   1
  -1   3 -13 22.7899 69.5195   4
  -1  -3 -13 155.424 86.0196   1
  -1   3 -13 208.081 154.872   3
  -1  -3 -13 24.6502 85.3234   2
  -1  -3 -14 75.6798 86.9109   2
  -1   3 -14-20.8128 64.3273   4
  -1  -3 -14 70.5165 87.7081   1
  -1   3 -14 113.375 98.4205   3
  -1  -3 -15 38.3996 79.5480   2
  -1   3 -15-78.7724 96.9777   3
  -1  -3 -15 3.38343 67.2978   1
  -1   3 -15-15.3750 64.0462   4
  -1   3 -16 72.7456 75.4158   4
  -1   3 -16 56.1285 82.5397   3
  -1  -3 -16 86.6089 100.940   2
  -1  -3 -16 106.822 85.6789   1
  -1  -3 -17 2.50012 71.6584   2
  -1   3 -17-100.314 93.4090   4
  -1   3 -17-45.6541 86.0595   3
  -1  -3 -17 91.9756 90.1519   1
   1   4 -15 36.7076 98.5480   4
   1  -4 -15 38.9939 78.1185   2
   1   4 -15-6.26431 98.4514   3
   1   4 -14 532.203 230.642   3
   1  -4 -14 177.739 125.866   2
   1   4 -14 679.338 194.806   4
   1  -4 -13 316.232 124.166   1
   1  -4 -13 207.238 119.775   2
   1   4 -13 304.149 182.841   3
   1   4 -13 286.258 135.484   4
   1  -4 -12 102.310 83.0545   1
   1  -4 -12-21.2140 95.6138   2
   1   4 -12-11.3209 76.9628   3
   1   4 -12 55.0849 94.9569   4
   1   4 -11 87.2640 130.445   4
   1   4 -11 310.108 146.598   3
   1  -4 -11 234.682 97.7186   1
   1  -4 -11 334.838 128.001   2
   1   4 -10 221.899 118.021   4
   1  -4 -10-19.0510 53.5713   1
   1  -4 -10 95.0061 103.619   2
   1   4 -10 180.445 111.860   3
   1   4  -9 50.6506 87.0645   4
   1  -4  -9 117.201 84.8840   2
   1  -4  -9 84.6175 69.6023   1
   1  -4  -8 122.490 101.084   2
   1  -4  -8 59.2067 91.9587   1
   1   4  -8 134.429 98.2784   4
   1  -4  -7 1081.86 156.149   1
   1   4  -7 1017.30 203.427   4
   1  -4  -7 908.220 173.742   2
   1  -4  -6 263.382 86.5135   1
   1  -4  -6 510.564 130.574   2
   1   4  -6 310.611 122.650   4
  -1   4   5 447.094 45.8068   3
   1   4  -5 590.039 156.478   4
   1  -4  -5 726.576 163.043   2
   1  -4  -5 799.084 148.135   1
   1  -4  -4-54.5043 74.7811   2
  -1   4   4-12.1332 30.3573   1
  -1   4   4-5.82589 26.8233   3
   1  -4  -4 64.3860 57.1638   1
   1   4  -4 103.407 93.0261   4
   1  -4  -3 1038.99 179.046   2
   1   4  -3 707.758 158.845   4
  -1   4   3 966.205 120.143   3
  -1   4   3 1057.25 138.836   1
  -1   4   2 252.425 88.7099   1
  -1   4   2 237.906 68.4575   3
   1  -4  -2 183.956 82.0143   2
  -1   4   1 47.4933 56.0996   1
   1  -4  -1 32.7450 49.3030   2
  -1   4   1 35.1391 46.6652   3
  -1   4   0 288.420 94.6601   3
  -1   4  -1 2327.72 248.888   3
  -1  -4  -2 287.801 121.803   1
  -1   4  -2 110.100 67.5111   3
  -1   4  -3 135.932 78.6585   3
  -1  -4  -3-2.56556 60.9615   1
  -1   4  -3-61.2282 61.0734   4
  -1   4  -4 755.305 150.151   4
   1   4   4 560.313 112.384   3
  -1   4  -4 532.963 141.077   3
  -1  -4  -4 436.473 131.607   1
  -1  -4  -5 12117.3 608.852   1
  -1   4  -5 11077.5 612.778   3
  -1  -4  -5 10668.1 569.829   2
  -1   4  -5 11850.7 568.638   4
  -1   4  -6 176.561 81.5123   3
  -1  -4  -6 199.249 97.5931   1
  -1   4  -6 219.438 105.171   4
  -1  -4  -6-52.9660 46.3504   2
  -1  -4  -7 1960.85 267.159   2
  -1  -4  -7 2201.46 267.882   1
  -1   4  -7 2464.77 283.412   4
  -1   4  -7 2302.77 297.281   3
  -1  -4  -8 64.8037 78.0515   1
  -1   4  -8 297.686 104.098   4
  -1   4  -8 277.193 135.283   3
  -1  -4  -8 124.902 80.2386   2
  -1   4  -9 161.351 116.476   3
  -1  -4  -9 75.4205 68.7891   2
  -1  -4  -9 213.617 90.6415   1
  -1   4 -10 50.0136 76.1958   3
  -1  -4 -10-0.67952 52.5438   2
  -1  -4 -10 34.2980 53.9322   1
  -1   4 -10 106.799 85.3402   4
  -1  -4 -11-13.4504 50.9561   2
  -1   4 -11 114.684 59.2233   3
  -1   4 -11 311.991 126.140   4
  -1  -4 -11 262.203 131.046   1
  -1  -4 -12 785.058 200.313   2
  -1   4 -12 1201.58 261.755   3
  -1   4 -12 1343.12 231.688   4
  -1  -4 -12 1075.07 206.709   1
  -1   4 -13 147.472 140.119   3
  -1  -4 -13 65.5602 82.7046   2
  -1  -4 -13-154.264 111.911   1
  -1  -4 -14 316.678 143.409   1
  -1  -4 -14 189.896 123.311   2
  -1   4 -14 53.9500 91.3291   3
  -1  -4 -15 1504.07 267.183   1
  -1  -4 -15 1754.38 326.158   2
  -1   4 -15 2325.72 405.476   3
   1   5 -11 357.122 180.615   3
   1  -5 -11 143.546 113.766   2
   1  -5 -10 447.796 176.172   2
   1   5 -10 308.902 169.427   3
   1  -5  -9 349.246 144.750   2
   1   5  -9 193.405 156.292   3
   1   5  -8 111.993 106.831   4
   1   5  -8 57.8038 99.1562   3
   1  -5  -8 67.4225 74.9579   2
   1   5  -7 146.454 117.730   3
   1  -5  -7 160.182 87.9289   2
   1   5  -7 37.1896 104.187   4
   1  -5  -6 614.276 174.173   2
   1   5  -6 206.310 116.238   3
   1   5  -6 634.695 183.952   4
   1   5  -5 8.27207 71.7016   3
   1  -5  -5 13.8619 51.8391   2
   1   5  -5 163.928 116.364   4
   1   5  -4 269.941 153.187   4
   1  -5  -4 28.4514 61.4648   2
   1   5  -3 113.042 101.477   4
   1   5  -2 610.452 187.722   4
  -1   5   1 762.020 145.490   3
  -1   5   0 6.69005 55.8415   3
  -1   5  -1 3419.17 324.512   3
  -1   5  -2 788.662 190.590   4
   1   5   2 854.144 165.249   3
  -1   5  -2 804.232 178.633   3
  -1   5  -3 549.603 175.702   4
  -1   5  -3 387.299 138.485   3
  -1   5  -4 673.121 196.521   4
  -1   5  -4 474.801 150.895   3
  -1   5  -5 567.253 171.353   3
  -1  -5  -5 814.274 204.633   1
  -1   5  -6 29.8986 86.2429   3
  -1  -5  -6 220.836 133.027   1
  -1   5  -7 14.3790 62.6240   3
  -1  -5  -7-2.29358 83.8423   1
  -1   5  -8-25.3471 78.6355   3
  -1  -5  -8 105.600 117.181   1
  -1   5  -9 68.7599 79.1168   3
  -1   5 -10 236.532 149.388   3
  -1  -5 -10 95.7558 101.740   2
  -1   5 -11 483.635 214.948   3
  -1  -5 -11 268.645 141.799   2
   2   0 -20 133.585 105.062   2
   2   0 -20 67.5666 83.4862   3
   2   0 -20 42.0088 81.1796   4
   2   0 -19 188.746 116.607   4
   2   0 -19-31.5124 84.4574   2
   2   0 -19 91.3468 102.455   3
   2   0 -18 217.356 134.569   4
   2   0 -18 95.5934 106.396   2
   2   0 -18 377.717 145.582   3
   2   0 -17 165.494 104.053   2
   2   0 -17-64.8447 67.2130   4
   2   0 -17 29.1254 61.6537   3
   2   0 -16 482.283 158.830   4
   2   0 -16 790.960 180.346   3
   2   0 -16 700.345 162.580   2
   2   0 -15-98.9196 82.1055   3
   2   0 -15 28.9522 64.1400   4
   2   0 -15-48.3377 54.8624   2
   2   0 -14 127.047 98.4514   4
   2   0 -14 182.909 86.9869   3
   2   0 -13 2.97303 44.1030   3
   2   0 -13 11.0530 40.2669   2
   2   0 -13-26.9063 65.8855   4
   2   0 -12 6156.32 443.504   4
   2   0 -12 5789.09 390.990   2
   2   0 -11-9.24889 63.2266   4
   2   0 -11-80.0318 70.0717   2
   2   0 -10 60664.5 1169.97   2
   2   0 -10 61605.8 1264.70   4
   2   0  -9 32.5457 48.7067   2
   2   0  -9-48.6278 38.3705   4
  -2   0   9-7.68304 36.2866   2
   2   0  -8 24223.0 676.478   2
  -2   0   8 24930.7 729.899   2
   2   0  -8 23588.8 706.845   4
   2   0  -7-8.76453 25.6559   2
  -2   0   7 3.89861 25.3111   2
  -2   0   7 88.2242 57.5174   4
   2   0  -7 13.7910 32.7144   4
  -2   0   6 5238.28 306.225   4
   2   0  -6 5806.11 301.016   2
   2   0  -6 5972.29 316.097   4
  -2   0   6 6199.88 321.344   2
   2   0  -5 41.4139 39.6098   2
  -2   0   5-16.7281 29.1065   4
   2   0  -4 2003.20 166.284   4
   2   0  -4 2000.52 157.956   2
  -2   0   4 2026.02 167.612   4
  -2   0   3 66.5807 47.2966   4
   2   0  -3-3.20015 22.4910   2
   2   0  -3-15.6711 30.5662   4
  -2   0   2 13780.4 333.690   4
   2   0  -2 14250.7 348.173   4
  -2   0   1 2.49215 22.1425   1
  -2   0   1-24.1951 19.2180   3
  -2   0   1 18.6471 19.4387   4
   2   0  -1 14.1398 15.8829   4
  -2   0   0-0.15670 8.37946   1
  -2   0   0-18.7897 16.1097   3
  -2   0  -1-9.89302 18.5664   1
   2   0   1-21.6738 17.3536   3
  -2   0  -1-7.45264 12.0032   3
  -2   0  -2 296.027 45.5913   1
  -2   0  -2 199.348 35.3461   3
   2   0   2 262.216 44.8118   1
   2   0   2 255.683 41.1750   3
  -2   0  -3 33.3053 22.2928   1
  -2   0  -3 54.4972 32.0905   3
   2   0   3 12.3363 12.5579   2
   2   0   3 45.5784 28.2680   3
   2   0   4 4783.09 211.804   3
   2   0   4 4627.85 175.807   2
  -2   0  -4 4542.74 199.096   3
  -2   0  -4 4885.58 219.582   1
  -2   0  -5 32.5618 24.2939   3
   2   0   5 51.3277 43.4747   3
  -2   0  -5 42.1782 29.6022   1
   2   0   5-13.9178 24.7502   4
  -2   0  -5 35.6129 20.7752   2
   2   0   5-25.4874 23.8412   2
  -2   0  -6 13789.5 404.606   3
   2   0   6 13393.4 414.930   4
  -2   0  -6 14747.7 384.420   2
  -2   0  -6 12942.3 391.932   4
   2   0   6 13335.6 426.390   3
   2   0   6 13250.7 358.398   2
  -2   0  -7-25.1169 33.7909   3
   2   0   7 35.3422 28.7995   2
   2   0   7 77.7688 42.9583   4
  -2   0  -7 75.3323 45.5198   4
   2   0   7 58.8817 43.7575   3
  -2   0  -7-15.1345 22.7446   2
  -2   0  -8 120.723 54.5515   4
   2   0   8 175.455 66.8471   3
  -2   0  -8 98.9835 41.2449   3
  -2   0  -8 119.116 44.5217   2
   2   0   8 143.427 45.3517   2
   2   0   8 69.6935 47.8766   4
   2   0   9 6.73069 46.2981   2
  -2   0  -9-7.37272 30.8690   4
  -2   0  -9-34.9755 34.2640   2
  -2   0  -9 32.9272 39.7686   3
  -2   0 -10 1255.64 142.710   2
  -2   0 -10 1220.55 157.655   3
  -2   0 -10 1298.23 170.311   4
   2   0  10 1032.22 143.468   2
  -2   0 -11-1.43517 33.6959   3
  -2   0 -11-10.0011 28.2477   2
  -2   0 -11-0.36969 32.8657   4
  -2   0 -12 5070.71 306.748   2
  -2   0 -12 5198.13 348.067   3
  -2   0 -12 4913.51 351.340   4
  -2   0 -13 135.917 79.2531   4
  -2   0 -13 64.9218 64.5651   3
  -2   0 -13 16.1046 27.7087   2
  -2   0 -14 2274.71 285.551   1
  -2   0 -14 2170.01 227.931   2
  -2   0 -14 2096.22 256.902   4
  -2   0 -14 2335.55 257.428   3
  -2   0 -15 160.583 89.3648   3
  -2   0 -15 60.6314 50.9362   4
  -2   0 -15 23.9468 62.6640   1
  -2   0 -15 34.2819 65.0895   2
  -2   0 -16 1312.05 190.762   2
  -2   0 -16 1250.82 222.499   1
  -2   0 -16 788.859 165.118   3
  -2   0 -17 32.8690 51.8805   3
  -2   0 -17 43.8800 66.3592   2
  -2   0 -17-4.25317 54.7608   1
  -2   0 -18 895.423 201.241   1
  -2   0 -18 1034.44 191.512   2
  -2   0 -18 891.779 184.596   3
  -2   0 -19 57.8625 87.8183   3
  -2   0 -19 43.0376 86.5094   1
  -2   0 -19 15.3219 53.3008   2
  -2   0 -20 367.425 148.177   3
  -2   0 -20 397.472 175.621   1
   2  -1 -20 160.771 89.6750   1
   2  -1 -20 65.3394 71.4388   4
   2   1 -20 257.620 148.291   4
   2  -1 -20 291.025 145.325   2
   2   1 -20 347.224 161.638   3
   2  -1 -19 473.814 131.568   3
   2  -1 -19 792.410 199.233   1
   2  -1 -19 867.772 224.477   4
   2  -1 -19 605.703 181.065   2
   2   1 -19 840.843 180.361   2
   2   1 -19 788.908 224.139   3
   2   1 -19 949.922 235.390   4
   2  -1 -18 107.889 90.9385   3
   2   1 -18 239.025 133.488   3
   2  -1 -18 16.3525 61.7573   1
   2  -1 -18-26.5729 61.9839   2
   2  -1 -18 200.720 115.849   4
   2   1 -18 97.2177 92.3534   2
   2   1 -18 304.775 143.917   4
   2   1 -17 278.977 114.406   4
   2  -1 -17 68.8484 85.5023   2
   2  -1 -17 142.865 60.3419   3
   2  -1 -17 242.605 109.392   1
   2   1 -17 241.172 128.992   3
   2  -1 -17 229.150 107.367   4
   2   1 -17 130.460 96.6537   2
   2  -1 -16 647.208 174.896   2
   2   1 -16 1643.04 279.170   3
   2  -1 -16 1006.71 166.500   3
   2  -1 -16 1026.91 208.135   4
   2   1 -16 1705.02 276.734   4
   2   1 -16 1020.26 179.911   2
   2   1 -15 488.207 140.736   3
   2   1 -15 882.525 191.916   4
   2  -1 -15 539.221 151.906   2
   2  -1 -15 430.896 126.567   3
   2   1 -15 584.989 132.080   2
   2  -1 -15 384.969 134.924   4
   2   1 -14 26459.0 1039.54   3
   2   1 -14 25960.7 969.180   4
   2   1 -14 26691.8 842.685   2
   2  -1 -14 22255.1 876.465   2
   2  -1 -14 24133.7 728.071   3
   2  -1 -14 23978.4 931.279   4
   2   1 -13 1629.96 241.033   4
   2   1 -13 1418.31 189.210   2
   2  -1 -13 1511.34 176.196   3
   2  -1 -13 1050.82 193.740   4
   2  -1 -13 1119.26 190.755   2
   2  -1 -12 2201.26 262.487   4
   2   1 -12 2549.53 287.455   4
   2  -1 -12 2282.69 203.840   3
   2  -1 -12 2243.57 261.512   2
   2   1 -12 2820.86 259.775   2
   2  -1 -11 2404.23 260.411   4
   2   1 -11 2951.10 253.376   2
   2   1 -11 3017.67 299.698   4
   2  -1 -11 2760.19 282.609   2
   2  -1 -11 2774.89 219.893   3
   2   1 -10-8.78673 43.1361   2
   2   1 -10 187.925 89.4247   4
   2  -1 -10 114.688 53.6993   3
   2  -1 -10 84.1222 61.7973   4
   2  -1 -10 73.4211 54.5133   2
   2  -1  -9 6409.92 393.923   4
   2   1  -9 6809.13 347.617   2
   2  -1  -9 7015.43 296.764   3
   2  -1  -9 5890.98 377.799   2
   2   1  -9 7762.96 461.618   4
   2   1  -8 212.722 61.6874   2
   2  -1  -8 342.312 104.923   2
   2  -1  -8 266.161 72.7861   4
  -2  -1   7 201207. 2110.18   4
   2   1  -7 199955. 2055.59   4
   2  -1  -7 194988. 1878.85   4
   2  -1  -7 194852. 2028.57   2
   2  -1  -6 62290.1 1079.41   2
   2   1  -6 61981.0 935.251   2
   2  -1  -6 64657.5 1009.48   4
  -2   1   6 61792.3 1053.86   4
   2   1  -6 63470.3 1111.54   4
  -2   1   6 62772.1 1088.33   2
  -2   1   5 97811.8 1301.01   2
   2  -1  -5 96828.0 1133.92   4
   2  -1  -5 98314.3 1308.05   2
   2   1  -5 97475.4 1325.32   4
  -2   1   5 98979.0 1220.87   4
   2   1  -5 101839. 1136.21   2
  -2   1   4 47247.7 859.038   2
   2  -1  -4 44391.3 814.338   2
  -2   1   4 45508.5 738.827   4
   2  -1  -4 44787.1 718.438   4
   2   1  -4 44562.2 823.089   4
   2   1  -3 111378. 1247.34   4
  -2   1   3 108491. 1034.70   4
   2  -1  -3 109550. 1009.89   4
  -2   1   3 110948. 1221.40   2
   2  -1  -3 108883. 1199.92   2
   2   1  -3 105734. 1396.23   1
  -2   1   2 31015.8 603.431   2
   2   1  -2 29212.4 661.269   1
   2  -1  -2 30777.9 587.752   2
   2  -1  -2 30624.6 458.511   4
  -2   1   2 31038.8 479.096   4
  -2   1   2 30683.4 343.040   3
   2  -1  -2 30825.1 327.892   3
   2   1  -2 30475.2 622.217   4
   2  -1  -1 38978.0 603.485   2
   2  -1  -1 38306.5 414.016   4
   2  -1  -1 37195.8 424.318   3
   2   1  -1 36643.1 692.236   1
  -2   1   1 37380.1 609.276   2
  -2  -1   1 34687.1 676.716   1
  -2   1   1 37233.2 436.658   4
  -2   1   1 36219.7 403.868   3
   2   1   0 90653.9 994.280   1
  -2  -1   0 92871.6 1033.16   1
  -2   1   0 91814.5 862.497   2
   2  -1   0 92881.7 821.048   2
  -2   1   0 91047.1 721.844   3
   2  -1   1 4958.11 168.940   2
   2   1   1 4866.89 216.992   1
  -2  -1  -1 4511.90 214.563   1
   2   1   1 5357.14 229.572   3
  -2   1  -1 4888.22 192.008   3
  -2   1  -1 4815.58 177.990   2
  -2  -1  -2 210416. 1357.98   3
   2   1   2 208138. 1252.59   3
  -2  -1  -2 209374. 1397.20   1
  -2  -1  -3 2058.02 148.922   2
   2   1   3 1857.42 132.736   1
  -2   1  -3 2303.97 169.827   3
  -2   1  -3 1886.06 88.0165   4
  -2  -1  -3 1942.82 138.219   1
   2   1   3 1945.19 116.387   3
   2   1   3 1732.82 136.368   2
  -2  -1  -3 2048.75 132.731   3
   2  -1   3 2105.35 105.189   4
   2   1   4 154716. 1294.13   1
  -2   1  -4 156748. 1000.76   4
   2   1   4 157663. 1069.22   3
  -2  -1  -4 158447. 1327.53   1
  -2  -1  -4 159119. 1374.04   2
  -2  -1  -4 155270. 1153.65   3
   2  -1   4 156461. 1091.57   4
  -2   1  -4 161593. 1484.01   3
   2  -1   4 157803. 1523.29   3
   2   1   5 48012.9 627.629   3
  -2  -1  -5 46143.6 743.237   1
  -2   1  -5 48169.3 636.076   4
   2   1   5 47699.1 761.252   1
  -2   1  -5 48078.2 863.641   3
  -2  -1  -5 45338.2 632.347   3
   2  -1   5 49408.0 715.759   4
   2  -1   6 2182.50 172.568   4
   2   1   6 2065.58 141.408   3
  -2  -1  -6 2157.74 170.951   1
   2   1   6 1877.18 169.678   4
  -2  -1  -6 1810.26 132.505   3
  -2  -1  -6 2112.13 181.501   2
  -2   1  -6 1783.65 133.826   4
  -2   1  -6 1522.55 162.332   3
   2   1   6 2025.42 174.683   1
   2  -1   6 1392.12 80.5834   2
   2   1   7 435.942 90.0163   2
   2  -1   7 385.307 53.1949   2
   2  -1   7 496.593 96.3193   4
  -2  -1  -7 382.334 77.0761   2
  -2   1  -7 491.481 81.9811   4
  -2   1  -7 498.555 105.769   3
   2   1   7 500.092 79.8327   3
  -2  -1  -7 442.055 83.4977   1
  -2  -1  -7 372.685 69.6356   3
  -2   1  -8 95.4508 29.2347   2
   2   1   8 115.430 49.8832   3
  -2   1  -8 149.445 71.9801   3
  -2  -1  -8 189.169 57.9591   2
  -2  -1  -8 107.109 42.0105   3
  -2   1  -8 170.791 57.3193   4
  -2  -1  -8 113.361 51.9104   1
   2  -1   8 184.711 74.7241   4
   2  -1   8 93.9935 35.0691   2
  -2  -1  -9 2800.71 236.214   2
   2  -1   9 3149.86 268.194   4
   2   1   9 2615.06 213.880   3
  -2  -1  -9 2745.59 227.889   1
  -2   1  -9 3067.87 274.039   3
  -2  -1  -9 2590.27 188.414   3
  -2   1  -9 3094.00 236.332   4
  -2   1  -9 2842.62 163.228   2
   2  -1   9 3001.76 182.689   2
  -2  -1 -10 745.644 125.972   1
  -2  -1 -10 615.964 97.9043   3
  -2   1 -10 570.239 109.165   4
  -2   1 -10 752.532 144.078   3
  -2  -1 -10 739.125 129.976   2
   2  -1  10 564.372 87.5175   2
  -2   1 -10 1001.20 104.608   2
  -2  -1 -11 1557.29 159.944   3
  -2  -1 -11 1272.18 180.674   2
  -2   1 -11 1563.33 139.354   2
  -2   1 -11 1560.49 217.996   3
  -2   1 -11 1753.80 203.549   4
  -2  -1 -11 1538.20 191.416   1
   2  -1  11 1285.06 154.394   2
  -2  -1 -12 513.890 120.627   2
  -2   1 -12 382.602 115.764   3
  -2  -1 -12 256.507 74.5962   3
  -2   1 -12 369.996 71.8812   2
  -2   1 -12 194.524 86.4563   4
   2  -1  12 279.161 87.0486   2
  -2  -1 -12 366.740 108.652   1
  -2   1 -13 190.586 100.397   3
  -2  -1 -13 165.856 58.7476   3
  -2  -1 -13 176.249 84.9979   1
   2  -1  13 53.6095 66.1221   2
  -2  -1 -13 177.640 94.6508   2
  -2   1 -13 233.212 70.7441   2
  -2   1 -13 138.860 67.3062   4
  -2   1 -14 2314.22 202.073   2
  -2  -1 -14 1666.88 189.053   3
  -2   1 -14 1522.68 213.068   4
  -2   1 -14 2389.03 287.090   3
  -2  -1 -14 1954.95 246.636   1
   2  -1  14 1096.99 172.211   2
  -2  -1 -14 1656.89 219.688   2
  -2   1 -15 1738.05 237.328   4
  -2  -1 -15 1725.93 241.014   1
  -2   1 -15 1834.07 184.454   2
  -2   1 -15 1718.19 251.339   3
  -2  -1 -15 1554.15 198.675   3
  -2  -1 -15 1669.66 230.858   2
  -2  -1 -16 3971.77 373.481   2
  -2  -1 -16 4529.99 404.707   1
  -2   1 -16 4464.29 293.043   2
  -2   1 -16 5214.20 454.049   3
  -2   1 -16 4348.81 388.318   4
  -2  -1 -16 3983.45 313.488   3
  -2  -1 -17 184.605 100.717   1
  -2   1 -17 428.380 147.253   3
  -2  -1 -17 204.375 91.2221   3
  -2   1 -17 291.692 114.191   4
  -2  -1 -17 238.310 121.374   2
  -2   1 -18 852.957 197.825   3
  -2  -1 -18 947.657 200.472   1
  -2  -1 -18 1366.94 270.886   2
  -2   1 -18 1030.18 206.611   4
  -2  -1 -18 500.083 112.369   3
  -2  -1 -19 2.20419 62.4807   1
  -2   1 -19 152.555 106.379   4
  -2   1 -19-43.4637 71.4981   3
  -2  -1 -19 97.7792 115.694   2
  -2  -1 -19 75.8610 80.1098   3
  -2  -1 -20 9.55661 64.5135   2
  -2  -1 -20 101.509 107.507   3
  -2   1 -20 229.679 159.698   3
  -2  -1 -20-68.0443 72.7402   1
  -2   1 -20 121.065 113.284   4
   2   2 -19 146.515 179.364   3
   2   2 -19 123.146 82.1406   4
   2  -2 -19 256.106 117.745   1
   2  -2 -19 180.132 141.849   2
   2  -2 -18 335.187 160.969   2
   2  -2 -18 335.580 117.043   1
   2   2 -18 385.544 172.081   3
   2   2 -18 794.381 222.292   4
   2   2 -17 642.228 183.768   4
   2   2 -17 490.406 211.172   3
   2  -2 -17 419.754 167.350   2
   2  -2 -17 94.4365 67.4441   1
   2   2 -16 1177.83 284.681   3
   2  -2 -16 677.135 153.400   1
   2  -2 -16 693.392 189.583   2
   2   2 -16 1073.44 210.557   4
   2   2 -15 1260.55 236.771   4
   2  -2 -15 971.359 114.890   3
   2  -2 -15 1205.09 232.673   2
   2   2 -15 1116.95 177.860   2
   2  -2 -15 1232.85 193.088   1
   2   2 -15 1363.07 301.805   3
   2  -2 -14 1794.68 217.580   1
   2  -2 -14 1305.52 124.068   3
   2  -2 -14 1503.20 242.160   2
   2   2 -14 1958.29 219.794   2
   2   2 -14 2031.46 290.052   4
   2   2 -13 896.284 191.022   4
   2   2 -13 1192.26 171.205   2
   2  -2 -13 759.846 168.874   2
   2  -2 -13 561.959 75.4533   3
   2  -2 -13 950.152 154.935   1
   2  -2 -12 41.1072 44.7897   1
   2  -2 -12 148.280 37.3232   3
   2   2 -12 158.894 69.0702   2
   2  -2 -12 113.724 81.7875   2
   2   2 -11 3219.30 329.732   4
   2   2 -11 2587.64 222.883   2
   2  -2 -11 1717.35 103.240   3
   2  -2 -11 2536.80 293.484   2
   2  -2 -11 2263.97 209.276   1
   2   2 -10 8879.59 524.751   4
   2   2 -10 7552.52 365.059   2
   2  -2 -10 8283.70 376.484   1
   2  -2 -10 7497.53 476.752   2
   2  -2  -9 19.6301 27.7350   1
   2  -2  -9-27.2650 62.6007   2
   2   2  -9 5.91692 33.1997   2
   2   2  -9-5.21756 48.8491   4
   2   2  -8 8254.79 371.930   2
   2  -2  -8 7895.38 320.541   1
   2  -2  -8 8214.79 458.371   2
   2   2  -8 8329.99 472.747   4
   2  -2  -7 2378.59 163.578   1
   2  -2  -7 2277.27 234.299   2
   2   2  -7 2261.38 245.527   4
   2  -2  -6 3615.64 283.746   2
  -2  -2   6 3898.35 283.811   4
   2   2  -6 4381.62 321.591   4
   2  -2  -6 4122.75 199.228   1
   2  -2  -5 22044.9 416.132   1
   2   2  -5 23321.4 718.265   4
  -2   2   5 21964.6 589.238   4
   2  -2  -5 21018.8 643.586   2
  -2   2   4 21267.2 540.481   4
   2   2  -4 22848.3 807.591   1
   2   2  -4 22358.1 678.365   4
   2  -2  -4 20290.5 594.497   2
   2  -2  -3 34333.4 736.255   2
   2   2  -3 35170.7 933.373   1
  -2   2   3 34334.4 796.587   2
  -2   2   3 34750.9 374.147   1
  -2   2   3 35177.3 643.322   4
   2   2  -3 34806.1 809.049   4
  -2   2   3 33740.3 353.880   3
  -2   2   2 14141.3 483.228   2
  -2   2   2 14465.6 286.770   3
   2  -2  -2 14072.7 445.162   2
  -2   2   2 14195.0 248.256   1
   2   2  -2 15695.6 598.599   1
  -2   2   2 14697.6 373.590   4
   2  -2  -1 928.242 107.084   2
  -2   2   1 1013.99 88.6866   1
  -2   2   1 766.288 108.975   2
  -2   2   1 1035.86 92.3590   3
   2   2  -1 1114.20 151.619   1
  -2  -2   1 866.383 149.256   1
  -2   2   1 1050.18 92.2889   4
   2   2  -1 906.947 101.546   2
   2   2   0 23452.1 550.928   2
   2   2   0 25129.2 672.751   1
  -2  -2   0 23687.2 677.103   1
  -2   2   0 24572.9 510.013   1
   2  -2   0 22574.9 485.382   2
  -2   2   0 22166.9 537.162   2
  -2   2   0 22585.4 490.629   3
   2   2   1 29908.9 692.944   1
  -2   2  -1 28739.7 618.501   3
  -2   2  -1 27617.4 556.228   2
   2   2   1 26992.9 602.579   2
  -2  -2  -1 31546.1 759.073   1
   2  -2   1 28713.0 492.123   2
   2   2   2 15.5735 37.1815   2
  -2   2  -2 36.3115 29.3559   3
  -2   2  -2 31.9795 23.0108   4
   2  -2   2 20.2601 19.9760   2
   2   2   2 19.5911 67.0829   1
  -2  -2  -2 29.9723 36.9982   1
  -2   2  -2 35.5994 24.5643   2
   2   2   3 218.193 64.1835   1
   2   2   3 184.359 58.1702   2
  -2   2  -3 91.3380 36.6972   2
  -2  -2  -3 174.117 62.6063   1
  -2   2  -3 164.358 61.1144   3
  -2   2  -3 168.294 43.1070   4
   2  -2   3 148.718 29.3432   2
  -2  -2  -3 180.077 68.1851   2
   2   2   3 129.870 47.7572   3
  -2  -2  -4 3638.62 252.108   2
  -2  -2  -4 4457.95 270.653   1
  -2   2  -4 4115.34 197.178   4
   2   2   4 3863.54 194.500   3
  -2   2  -4 4112.04 276.618   3
   2   2   4 3498.68 216.156   1
   2  -2   5 5901.14 245.484   4
  -2  -2  -5 6117.50 313.826   1
   2   2   5 5962.21 293.320   1
  -2   2  -5 6511.53 274.096   4
   2   2   5 5689.51 218.316   3
  -2   2  -5 6097.56 356.214   3
  -2  -2  -5 5545.42 327.652   2
  -2   2  -6 9408.72 458.598   3
  -2  -2  -6 9086.21 405.479   1
   2  -2   6 9473.34 340.932   4
  -2   2  -6 9971.60 359.446   4
   2   2   6 8716.18 362.608   1
  -2  -2  -6 9276.62 349.306   3
  -2  -2  -6 9774.26 459.838   2
   2   2   6 9308.84 278.991   3
  -2  -2  -7 7301.31 366.658   1
   2   2   7 8758.79 282.271   3
  -2  -2  -7 9966.73 506.487   2
  -2   2  -7 9072.79 476.975   3
   2  -2   7 7617.00 334.537   4
  -2  -2  -7 10000.5 376.969   3
  -2   2  -7 9312.05 367.120   4
  -2   2  -8 65328.3 1329.23   3
  -2  -2  -8 63952.4 920.821   3
  -2   2  -8 68109.1 1037.62   4
   2   2   8 65513.0 831.813   3
  -2  -2  -8 68284.4 1313.24   2
   2  -2   8 68535.5 1130.98   4
  -2   2  -9-61.5367 47.4671   4
  -2  -2  -9 72.8681 66.1722   1
   2   2   9-2.55859 24.9025   3
  -2   2  -9 16.3356 44.8563   3
  -2  -2  -9-96.8440 43.6332   3
  -2  -2  -9 77.6956 39.1139   2
   2  -2   9 143.735 62.8184   4
  -2  -2 -10 8093.75 346.869   3
  -2   2 -10 9586.81 439.895   4
  -2  -2 -10 8772.59 450.799   1
   2   2  10 8155.98 336.550   3
  -2  -2 -10 8720.98 490.659   2
  -2   2 -10 10098.4 571.156   3
  -2  -2 -11 414.089 119.101   2
  -2  -2 -11 225.468 59.8360   3
  -2   2 -11 428.682 108.787   4
  -2   2 -11 220.667 100.421   3
  -2  -2 -11 36.5234 39.4796   1
  -2  -2 -12 6360.64 414.642   1
  -2   2 -12 7623.44 422.205   4
  -2  -2 -12 5692.99 307.501   3
  -2  -2 -12 6552.37 462.914   2
  -2   2 -12 7756.52 539.224   3
  -2  -2 -13 1786.38 177.979   3
  -2  -2 -13 1587.74 247.275   2
  -2   2 -13 2359.95 251.402   4
  -2  -2 -13 1518.44 208.577   1
  -2   2 -13 2278.35 313.568   3
  -2   2 -14-10.3783 57.1051   3
  -2  -2 -14 420.904 118.559   1
  -2   2 -14 184.330 93.7168   4
  -2  -2 -14 318.699 114.644   2
  -2  -2 -14 116.725 53.1510   3
  -2   2 -15 131.518 87.9029   3
  -2   2 -15 111.516 73.8354   4
  -2  -2 -15 7.69419 54.0059   2
  -2  -2 -15 162.483 77.7314   1
  -2  -2 -15 121.360 68.7221   3
  -2  -2 -16 82.0172 65.9297   1
  -2   2 -16 141.196 120.038   3
  -2  -2 -16 88.1624 77.3631   3
  -2  -2 -16 167.394 99.4833   2
  -2   2 -16 189.550 112.874   4
  -2  -2 -17 183.331 92.7215   1
  -2  -2 -17 36.4270 58.6870   3
  -2   2 -17-68.1519 66.1127   3
  -2  -2 -17 33.0018 66.7715   2
  -2   2 -17 139.286 93.8734   4
  -2   2 -18 843.378 192.022   4
  -2   2 -18 883.370 227.344   3
  -2  -2 -18 454.013 144.701   1
  -2  -2 -18 327.427 168.145   2
  -2   2 -19 207.117 117.498   4
  -2   2 -19 258.983 182.821   3
  -2  -2 -19 159.300 117.732   2
  -2  -2 -19 137.812 105.209   1
   2  -3 -17 122.023 90.1123   1
   2   3 -17 180.420 140.115   4
   2   3 -17 287.888 193.533   3
   2  -3 -17-61.4002 73.7801   2
   2  -3 -16-23.7344 85.5971   2
   2   3 -16 96.6819 120.468   4
   2   3 -16 215.953 164.775   3
   2  -3 -16-1.93245 61.0420   1
   2   3 -15 954.416 278.893   3
   2  -3 -15 434.278 185.702   2
   2  -3 -15 363.902 120.779   1
   2   3 -15 765.291 186.407   4
   2   3 -14 159.134 139.470   3
   2  -3 -14 112.089 89.7137   2
   2   3 -14 51.6605 76.5991   4
   2  -3 -14-57.7353 55.5175   1
   2  -3 -13 1599.20 211.538   1
   2  -3 -13 1539.36 271.596   2
   2   3 -13 1844.17 302.668   4
   2  -3 -12 692.526 131.113   1
   2   3 -12 1050.77 140.973   2
   2   3 -12 751.698 175.394   4
   2  -3 -12 764.529 182.726   2
   2  -3 -11 334.306 99.7263   1
   2  -3 -11 22.5971 45.3943   2
   2   3 -11 225.884 108.794   4
   2   3 -11 41.9032 38.3993   2
   2   3 -10 1282.82 155.258   2
   2  -3 -10 1420.25 173.049   1
   2   3 -10 1558.18 234.346   4
   2  -3 -10 1254.78 210.184   2
   2  -3  -9 3917.80 260.219   1
   2   3  -9 4347.57 287.667   2
   2  -3  -9 3868.14 353.953   2
   2   3  -8 2684.66 297.763   4
   2  -3  -8 2281.94 191.536   1
   2  -3  -8 2134.06 257.502   2
   2  -3  -7 6379.36 425.793   2
   2  -3  -7 5740.30 292.086   1
   2  -3  -6 3566.98 224.416   1
   2   3  -6 3121.26 208.944   2
   2   3  -6 4173.72 348.607   4
   2  -3  -6 3882.71 316.810   2
   2   3  -5-1.85457 45.1718   4
  -2   3   5-11.9433 24.5998   1
   2  -3  -5-57.8808 61.3740   2
   2  -3  -5 115.564 54.1390   1
   2   3  -5 114.781 51.0417   2
   2   3  -4 343.557 112.523   4
  -2   3   4 335.270 38.7905   3
   2  -3  -4 218.533 76.2378   2
   2   3  -4 272.945 74.0721   2
   2  -3  -4 203.919 59.4016   1
  -2   3   4 388.355 59.2678   1
   2   3  -3 2711.07 218.601   2
  -2   3   3 2740.65 141.816   3
  -2   3   3 2858.45 152.030   1
  -2   3   3 2506.56 200.433   4
   2  -3  -3 2531.64 228.412   2
  -2   3   2 1707.02 130.357   3
  -2   3   2 1713.02 151.417   4
   2  -3  -2 1552.57 172.622   2
  -2   3   2 1980.79 140.855   1
  -2   3   1 445.812 78.8535   3
   2  -3  -1 442.008 84.5609   2
  -2   3   1 462.751 84.6325   1
  -2   3   0 7663.07 382.589   2
  -2  -3   0 8179.54 497.061   1
  -2   3   0 8627.99 369.232   3
   2  -3   0 8839.88 369.221   2
  -2   3  -1 1258.56 164.998   1
   2  -3   1 1223.87 133.878   2
  -2  -3  -1 1012.57 187.950   1
  -2   3  -1 1014.94 134.530   2
  -2   3  -1 1132.60 143.381   3
  -2   3  -2 4426.48 293.931   3
  -2   3  -2 5054.75 368.918   1
  -2   3  -2 3958.46 247.688   2
  -2  -3  -2 4945.63 364.029   1
   2  -3   2 4189.75 224.325   2
  -2  -3  -3 2074.48 228.782   1
  -2   3  -3 2622.47 239.869   3
   2   3   3 2113.70 217.734   3
  -2   3  -3 2148.56 172.874   2
  -2   3  -3 2420.59 194.507   4
  -2   3  -3 2916.20 315.128   1
  -2   3  -4 2072.86 157.972   2
  -2   3  -4 2576.15 252.715   3
  -2   3  -4 2448.57 198.433   4
   2   3   4 1821.97 182.278   3
  -2  -3  -4 2547.91 262.330   1
   2   3   5 28.7812 28.6772   3
  -2  -3  -5 295.216 100.120   1
  -2   3  -5 209.989 103.948   3
  -2  -3  -5 219.815 85.8398   2
  -2   3  -5 146.510 40.1360   2
  -2   3  -5 228.377 68.6350   4
  -2  -3  -6 3110.28 275.033   1
  -2   3  -6 3001.33 294.707   3
  -2   3  -6 3076.17 230.274   4
   2   3   6 2314.45 163.612   3
  -2  -3  -6 2378.30 250.225   2
  -2   3  -7 294.089 81.5737   4
  -2   3  -7 194.856 86.3404   3
   2   3   7 338.806 56.7158   3
  -2  -3  -7 398.672 109.617   1
  -2  -3  -7 366.960 106.985   2
  -2   3  -8 640.295 154.958   3
  -2  -3  -8 374.292 98.5629   1
   2   3   8 729.719 76.4378   3
  -2  -3  -8 516.693 128.239   2
  -2   3  -8 743.825 124.820   4
  -2  -3  -9 45200.2 1197.34   2
  -2   3  -9 49641.0 1013.63   4
  -2  -3  -9 43136.1 1061.36   1
  -2   3  -9 48134.5 1309.81   3
  -2   3 -10 251.282 81.5184   4
  -2   3 -10 189.129 95.8932   3
  -2  -3 -10 162.762 104.094   2
  -2  -3 -10 85.0212 47.6757   1
  -2  -3 -11 6911.24 506.731   2
  -2  -3 -11 7331.04 478.767   1
  -2   3 -11 8319.48 448.930   4
  -2   3 -11 6953.85 545.932   3
  -2   3 -12 5722.51 511.045   3
  -2   3 -12 5094.07 373.620   4
  -2  -3 -12 4023.97 413.586   2
  -2  -3 -12 4872.51 401.099   1
  -2   3 -13 123.503 101.624   3
  -2  -3 -13 146.724 110.743   2
  -2   3 -13 110.957 90.5268   4
  -2  -3 -13-68.4811 61.2180   1
  -2   3 -14-56.1391 71.9165   3
  -2  -3 -14 112.476 105.694   2
  -2   3 -14 44.6309 51.8525   4
  -2  -3 -14-22.0367 56.4038   1
  -2  -3 -15 159.554 111.425   1
  -2   3 -15-26.5551 81.5253   3
  -2  -3 -15 0.38266 56.8599   2
  -2   3 -15-24.3443 70.9728   4
  -2   3 -16 149.610 142.170   3
  -2   3 -16 69.7439 82.6553   4
  -2  -3 -16 23.7002 58.7953   2
  -2  -3 -16 49.0804 85.5320   1
  -2  -3 -17 59.2726 81.5091   1
  -2   3 -17 114.559 110.329   3
  -2   3 -17 14.5641 75.5845   4
  -2  -3 -17 53.7943 67.9823   2
   2  -4 -15 293.959 123.023   2
   2   4 -15 392.985 164.150   4
   2   4 -15 339.204 204.434   3
   2  -4 -14 121.088 125.456   2
   2   4 -14 209.147 147.760   4
   2   4 -14 278.427 192.839   3
   2  -4 -13 129.181 121.106   2
   2   4 -13 22.2531 90.4830   3
   2   4 -13 61.7372 86.4969   4
   2  -4 -12 234.782 112.163   2
   2   4 -12 179.295 128.419   4
   2  -4 -11 501.703 169.314   2
   2  -4 -11 156.965 77.2025   1
   2   4 -11 330.257 147.220   4
   2   4 -10 229.581 145.245   4
   2  -4 -10 174.645 152.150   2
   2  -4 -10 136.513 74.9821   1
   2  -4  -9 2344.11 311.879   2
   2   4  -9 3053.44 372.613   4
   2  -4  -9 2960.59 260.283   1
   2  -4  -8 86.0299 60.5380   1
   2  -4  -8 71.2273 84.7325   2
   2   4  -8-33.9544 62.9860   4
   2  -4  -7 48.0676 55.2367   2
   2   4  -7 169.219 127.080   4
   2  -4  -7 39.3328 47.0207   1
   2   4  -6 7416.70 537.619   4
   2  -4  -6 7451.81 388.655   1
   2  -4  -6 7770.37 507.197   2
   2   4  -5 917.192 188.999   4
   2  -4  -5 642.408 153.176   2
   2   4  -4 257.736 114.518   4
  -2   4   4 201.784 44.0798   3
   2  -4  -4 400.039 114.504   2
  -2   4   3 156.077 56.3118   1
  -2   4   3 88.3494 45.9776   3
   2  -4  -3-34.0150 49.6890   2
   2   4  -3 272.752 96.5907   4
  -2   4   2 920.922 120.423   3
   2  -4  -2 1233.39 186.821   2
  -2   4   2 1255.52 144.994   1
  -2   4   1 145.718 75.0106   3
  -2   4   1 370.804 96.0416   1
   2  -4  -1 327.963 95.2991   2
   2  -4   0 34.2153 32.8000   2
  -2   4   0 72.3025 54.2795   3
  -2   4   0-13.5395 47.7651   1
  -2   4  -1 10.7901 42.7451   3
  -2  -4  -1-15.5963 60.2434   1
  -2   4  -2 3436.36 306.168   3
  -2  -4  -2 4472.06 418.263   1
  -2   4  -2 3881.46 299.831   4
  -2   4  -3 2165.08 231.084   4
  -2   4  -3 1755.03 227.397   3
  -2  -4  -3 2093.53 281.968   1
  -2   4  -4 1730.60 231.273   3
  -2   4  -4 1836.63 211.745   4
  -2  -4  -4 1870.88 255.148   1
  -2  -4  -5 6822.72 476.200   1
  -2   4  -5 6813.39 401.957   4
  -2   4  -5 5716.65 438.743   3
  -2  -4  -6 7945.62 514.516   1
  -2   4  -6 7170.16 503.118   3
  -2   4  -6 8037.27 447.359   4
  -2   4  -7 3212.44 278.554   4
  -2   4  -7 3104.23 338.598   3
  -2  -4  -7 3273.77 344.981   1
  -2  -4  -8 1700.19 242.476   1
  -2   4  -8 1921.44 229.502   4
  -2  -4  -8 1270.58 218.489   2
  -2   4  -8 1166.35 223.158   3
  -2   4  -9-0.36458 64.4151   3
  -2  -4  -9-39.1219 58.3357   2
  -2  -4  -9-7.24880 56.4112   1
  -2   4 -10 678.608 148.825   4
  -2  -4 -10 433.828 130.051   1
  -2   4 -10 572.405 176.657   3
  -2  -4 -10 529.608 146.588   2
  -2  -4 -11 298.452 132.175   1
  -2   4 -11 131.248 98.4804   3
  -2  -4 -11 128.067 119.327   2
  -2  -4 -12 485.472 146.852   2
  -2  -4 -12 464.499 148.196   1
  -2   4 -12 582.644 188.490   3
  -2  -4 -13 1160.45 231.764   1
  -2   4 -13 1663.57 326.754   3
  -2  -4 -13 992.509 214.758   2
  -2  -4 -14 1416.83 298.336   1
  -2   4 -14 1155.40 279.606   3
  -2  -4 -14 500.117 167.389   2
   2  -5 -11 287.921 145.400   2
   2   5 -11 158.089 173.554   3
   2   5 -10 118.873 117.954   3
   2  -5 -10 122.943 93.7050   2
   2   5 -10 50.0722 127.456   4
   2  -5  -9 268.496 141.154   2
   2   5  -9 340.906 177.820   4
   2  -5  -8 305.718 140.625   2
   2   5  -8 170.188 147.485   4
   2  -5  -7 106.350 114.929   2
   2   5  -7 34.1931 99.7181   4
   2  -5  -6 93.7027 75.1399   2
   2   5  -6-68.8568 75.6941   4
   2   5  -5 819.288 215.614   4
   2  -5  -5 688.146 176.301   2
   2   5  -4 174.752 124.202   4
   2  -5  -4 2.31863 55.8375   2
   2   5  -3 108.379 95.1779   4
   2  -5  -3 85.8509 69.8187   2
   2  -5  -2-20.6716 63.0982   2
   2   5  -2 50.6134 92.8786   4
  -2   5   1-35.9658 41.3052   3
  -2   5   0 76.5710 60.7857   3
  -2   5  -1 1189.77 200.326   3
  -2   5  -2 3803.29 351.711   3
  -2   5  -3 96.0530 84.6946   3
  -2   5  -4 595.807 169.368   3
  -2  -5  -4 565.347 168.079   1
  -2  -5  -5 139.831 101.550   1
  -2   5  -5 40.5210 74.1666   3
  -2   5  -6 181.800 93.5337   3
  -2  -5  -6 240.267 128.579   1
  -2  -5  -7 139.819 89.1931   1
  -2   5  -7 164.153 134.610   3
  -2   5  -8 184.435 111.192   3
  -2  -5  -8 37.7323 87.1318   1
  -2  -5  -9 79.6043 93.2655   1
  -2   5  -9 200.097 111.091   3
  -2   5 -10 107.505 130.278   3
  -2  -5 -10 165.532 121.527   1
   3   0 -20 81.1825 93.0943   3
   3   0 -20 42.0522 102.336   4
   3   0 -20 26.6270 104.839   2
   3   0 -19-37.9959 89.7184   3
   3   0 -19 231.963 122.368   4
   3   0 -19 139.087 112.013   2
   3   0 -18 1.23665 61.0194   4
   3   0 -18 62.0545 70.9879   3
   3   0 -18 40.6800 105.478   2
   3   0 -17 31.0612 87.4041   4
   3   0 -17 23.6786 70.5665   3
   3   0 -17 126.290 96.6796   2
   3   0 -16 219.318 120.451   3
   3   0 -16-27.0090 70.0948   4
   3   0 -16 80.1849 84.9643   2
   3   0 -15 1184.18 212.154   2
   3   0 -15 1915.98 264.682   3
   3   0 -15 1483.41 247.530   4
   3   0 -14 43.3212 71.3831   2
   3   0 -14-16.7380 77.7953   4
   3   0 -13 9386.86 578.914   4
   3   0 -13 10011.8 556.958   2
   3   0 -12-52.4990 74.3726   4
   3   0 -12 47.7887 56.8251   2
   3   0 -11 1709.31 219.560   2
   3   0 -11 1393.03 197.527   4
   3   0 -10 15.3259 40.2404   4
   3   0 -10 52.8961 63.4096   2
   3   0  -9 5181.66 375.899   4
   3   0  -9 4727.17 332.466   2
   3   0  -8-64.2545 59.8402   4
  -3   0   8-37.4918 39.5671   2
   3   0  -8 30.7153 38.6242   2
  -3   0   7 35268.8 901.446   4
   3   0  -7 35673.5 873.601   4
   3   0  -7 33858.2 825.912   2
  -3   0   6 13.9828 46.5745   4
  -3   0   6 46.6742 40.7877   2
   3   0  -6 70.4344 54.1979   2
   3   0  -6-23.3141 42.0703   4
   3   0  -5 799.318 117.983   4
  -3   0   5 946.907 129.936   4
   3   0  -5 899.041 126.188   2
   3   0  -4-22.8831 34.3709   2
   3   0  -4 30.6530 31.2653   4
  -3   0   4-25.9785 36.9342   4
  -3   0   3 3162.35 203.648   4
   3   0  -3 3074.76 201.631   4
   3   0  -3 3477.47 215.690   2
   3   0  -2 63.0145 37.9199   4
  -3   0   2-14.7123 27.8464   1
  -3   0   2 3.50302 23.6074   4
  -3   0   1 41166.4 586.472   4
  -3   0   1 39634.3 564.894   1
  -3   0   1 42538.6 651.962   3
   3   0  -1 41832.6 623.433   4
   3   0   0-2.26526 31.0385   3
  -3   0   0 88.0697 31.4598   1
  -3   0   0 28.3485 27.4008   3
   3   0   2-7.06150 24.3804   3
  -3   0  -2-10.8452 22.8906   3
  -3   0  -2 8.33245 22.4590   1
   3   0   3 94301.0 946.281   3
  -3   0  -3 96508.9 935.163   3
  -3   0  -3 97194.2 935.404   1
  -3   0  -4 2.83385 20.8621   3
   3   0   4-7.59248 19.5364   2
   3   0   4 37.9896 36.9008   3
  -3   0  -4 32.9202 26.7230   1
   3   0   5 438.311 75.1551   4
   3   0   5 389.132 65.2509   2
  -3   0  -5 353.243 67.5254   3
  -3   0  -5 371.578 76.0426   1
   3   0   5 434.545 76.3670   3
  -3   0  -6-1.43622 25.3600   3
   3   0   6 20.1502 23.9123   2
  -3   0  -6-5.60917 38.5308   1
   3   0   6 31.2383 33.6679   4
   3   0   7 8083.94 349.815   4
   3   0   7 8649.70 385.994   3
   3   0   7 7657.15 297.690   2
  -3   0  -7 7994.69 342.847   3
  -3   0  -7 8741.06 384.081   1
   3   0   8 40.1532 42.5519   4
   3   0   8 73.6477 40.5133   2
  -3   0  -8 7.91856 35.0208   3
  -3   0  -8-38.4517 50.8778   1
  -3   0  -9 2465.66 213.288   3
   3   0   9 2223.84 190.100   2
  -3   0  -9 2505.86 232.623   1
  -3   0  -9 2585.53 192.294   2
  -3   0 -10-0.16746 38.8408   3
  -3   0 -10-0.98984 41.2691   1
  -3   0 -10-4.89334 29.3640   2
  -3   0 -11 473.293 93.0252   2
  -3   0 -11 558.981 113.906   3
  -3   0 -11 502.455 113.225   1
  -3   0 -12 6.61565 31.2898   3
  -3   0 -12-72.0335 68.8304   1
  -3   0 -12-34.4569 43.0164   2
  -3   0 -13 202.277 83.1041   3
  -3   0 -13 184.225 94.0102   1
  -3   0 -13 94.1998 56.1385   2
  -3   0 -14-56.6084 69.4577   3
  -3   0 -14-66.2527 55.5777   1
  -3   0 -14-63.1733 51.6697   2
  -3   0 -15 25.6173 65.4625   3
  -3   0 -15 37.5445 39.6120   2
  -3   0 -16 3.56634 68.6933   3
  -3   0 -16 51.4378 69.2517   1
  -3   0 -16 70.3042 78.0551   2
  -3   0 -17 142.148 74.0361   3
  -3   0 -17 160.030 79.7104   2
  -3   0 -17 199.671 100.157   1
  -3   0 -18 221.196 105.538   3
  -3   0 -18 116.319 91.4290   1
  -3   0 -18-8.50160 47.7986   2
  -3   0 -19 3000.57 322.029   2
  -3   0 -19 4271.10 418.429   3
  -3   0 -19 3675.86 425.597   1
  -3   0 -20-52.9515 102.046   3
  -3   0 -20-6.89137 75.8132   1
   3   1 -20 22.1357 106.043   3
   3  -1 -20 139.413 130.857   4
   3  -1 -20 305.806 179.369   2
   3  -1 -20 24.5460 62.3144   1
   3   1 -20 247.338 152.982   4
   3   1 -19 24.3246 79.3595   4
   3  -1 -19-27.4310 72.1588   4
   3   1 -19 287.176 194.313   3
   3  -1 -19 122.320 87.1732   3
   3  -1 -19 92.7881 87.9256   1
   3  -1 -19 291.014 157.224   2
   3   1 -19 422.369 146.078   2
   3   1 -18 675.722 200.301   3
   3  -1 -18 629.718 142.155   3
   3   1 -18 920.407 204.841   2
   3  -1 -18 508.936 173.905   2
   3   1 -18 1070.62 235.968   4
   3  -1 -18 943.242 223.372   4
   3   1 -17 287.895 131.830   4
   3  -1 -17 111.572 100.978   2
   3   1 -17 177.057 104.777   3
   3  -1 -17 233.997 108.361   3
   3   1 -17 44.4213 67.9360   2
   3  -1 -17 316.457 148.008   4
   3   1 -16 26.8098 101.499   4
   3  -1 -16 147.197 114.776   4
   3   1 -16 78.6236 92.5295   3
   3  -1 -16 53.6794 70.1543   3
   3   1 -16 67.4424 70.6104   2
   3  -1 -16 64.7317 62.6851   2
   3  -1 -15 404.682 127.569   4
   3   1 -15 640.642 157.581   2
   3  -1 -15 184.171 93.0601   2
   3   1 -15 465.382 157.435   4
   3  -1 -15 340.382 108.723   3
   3  -1 -14 1082.81 162.807   3
   3  -1 -14 605.036 148.570   2
   3  -1 -14 970.636 195.952   4
   3   1 -14 970.068 206.031   4
   3   1 -14 999.315 187.331   2
   3   1 -13 421.642 141.152   4
   3  -1 -13 226.771 98.8133   4
   3  -1 -13 547.295 104.236   3
   3  -1 -13 382.954 126.463   2
   3   1 -13 351.594 115.587   2
   3  -1 -12 665.276 163.015   4
   3  -1 -12 630.067 154.755   2
   3   1 -12 1002.91 167.073   2
   3  -1 -12 723.783 121.996   3
   3   1 -12 792.910 179.502   4
   3   1 -11 121.471 86.4192   2
   3   1 -11-12.6604 69.9638   4
   3  -1 -11 37.6649 42.4310   2
   3  -1 -11 57.8875 70.8402   4
   3  -1 -10 702.524 157.588   2
   3   1 -10 1303.59 204.739   4
   3   1 -10 812.425 141.784   2
   3  -1 -10 921.632 155.613   4
   3   1  -9 6362.67 430.803   4
   3  -1  -9 5714.87 364.090   4
   3  -1  -9 6564.28 429.024   2
   3   1  -9 7148.32 404.937   2
   3   1  -8 745.226 142.347   4
   3  -1  -8 776.587 131.071   4
   3   1  -8 789.342 132.055   2
   3  -1  -8 882.550 148.138   2
   3  -1  -7 7.11525 53.9089   2
   3   1  -7 114.179 75.9612   2
   3   1  -7-65.3777 64.3794   4
   3  -1  -7 9.55029 32.9729   4
   3  -1  -6 985.901 155.543   2
  -3   1   6 1141.07 157.234   2
   3   1  -6 1151.77 163.020   4
   3  -1  -6 1139.79 141.552   4
  -3   1   6 1271.92 160.944   4
   3   1  -6 1028.50 139.226   2
   3   1  -5 1370.24 175.087   4
   3  -1  -5 982.443 124.539   4
  -3   1   5 1022.92 141.777   2
   3  -1  -5 1394.78 108.596   3
   3  -1  -5 1065.08 142.246   2
  -3   1   5 1067.69 139.913   4
  -3   1   4 13985.8 454.841   4
  -3   1   4 13129.5 486.213   2
   3  -1  -4 11932.8 460.612   2
   3   1  -4 12399.0 476.474   4
   3  -1  -4 12449.8 401.645   4
   3  -1  -4 13350.4 302.573   3
   3  -1  -3 36945.2 479.218   3
  -3   1   3 33684.7 507.494   3
   3   1  -3 33520.5 804.474   1
  -3   1   3 38020.7 668.279   4
   3   1  -3 33132.6 748.744   4
   3  -1  -3 36705.1 786.365   2
  -3   1   3 38035.9 800.157   2
   3  -1  -3 34653.5 618.208   4
  -3   1   2 173.460 49.8304   4
   3  -1  -2 136.710 44.1803   4
   3  -1  -2 87.6910 46.3511   2
   3   1  -2 90.4810 37.5131   4
   3   1  -2 111.876 63.3080   1
  -3   1   2 110.630 29.3792   3
  -3  -1   2 99.5147 51.5638   1
  -3   1   2 127.179 69.3991   2
   3  -1  -2 176.943 32.8623   3
   3   1  -1 4188.85 263.406   1
   3  -1  -1 4083.33 169.981   3
  -3   1   1 3608.83 150.503   3
   3  -1  -1 3844.25 148.858   4
  -3   1   1 3925.92 225.868   2
  -3   1   1 4046.14 167.244   4
  -3  -1   1 3844.76 244.360   1
   3  -1  -1 4139.64 222.824   2
   3  -1   0 3323.99 105.413   4
   3  -1   0 4061.00 184.683   3
   3   1   0 4490.32 256.701   3
  -3   1   0 3853.27 168.511   3
  -3   1   0 3894.77 112.179   1
   3  -1   0 3919.71 198.761   2
  -3   1   0 4150.78 223.023   2
  -3   1   0 3193.47 115.682   4
  -3  -1   0 4632.51 263.181   1
   3   1   0 3941.07 227.428   1
  -3   1  -1 13455.2 339.460   3
  -3  -1  -1 13993.6 415.525   1
   3   1   1 14285.0 424.414   3
   3   1   1 13442.0 390.571   1
  -3   1  -1 14330.2 283.303   1
  -3   1  -2 104.806 36.4880   3
  -3  -1  -2 120.902 45.8144   1
   3  -1   2 149.267 36.7282   2
   3   1   2 116.508 35.6971   3
  -3  -1  -2 59.0726 35.5483   3
   3   1   2 100.205 35.2301   1
   3   1   3 17473.3 441.584   2
   3   1   3 16012.4 392.387   3
  -3  -1  -3 17146.2 443.891   3
   3  -1   3 13926.5 244.689   4
  -3   1  -3 16368.8 436.668   3
   3   1   3 16796.0 432.244   1
  -3  -1  -3 17373.2 463.570   1
   3  -1   3 14510.9 287.705   2
   3  -1   4 29713.6 672.331   3
  -3  -1  -4 28396.4 556.836   3
   3   1   4 28633.1 525.195   3
   3  -1   4 29753.7 455.779   4
  -3  -1  -4 30187.5 620.414   1
  -3   1  -4 30472.7 638.109   3
   3   1   4 28505.9 588.863   1
   3  -1   5 7244.11 165.789   2
  -3   1  -5 7887.81 234.223   4
   3  -1   5 7830.63 365.649   3
  -3  -1  -5 8251.33 313.344   3
  -3  -1  -5 7753.27 332.391   1
   3  -1   5 8230.10 286.066   4
   3   1   5 7614.28 321.698   1
  -3   1  -5 8103.07 352.767   3
   3   1   5 7826.07 283.558   3
  -3  -1  -6 265.039 69.6696   1
   3   1   6 440.715 76.5356   3
  -3  -1  -6 415.884 75.0188   3
   3   1   6 210.930 59.4311   2
  -3   1  -6 489.897 99.7049   3
   3   1   6 450.888 89.1402   1
  -3   1  -6 381.949 62.9438   4
  -3  -1  -6 395.788 87.1504   2
   3  -1   6 288.084 64.8587   4
   3  -1   6 315.722 38.4511   2
   3  -1   7 674.229 111.577   4
  -3  -1  -7 688.101 110.284   2
   3   1   7 447.349 79.3816   3
  -3  -1  -7 457.602 93.0417   1
  -3   1  -7 418.958 90.2289   3
   3  -1   7 513.630 57.6649   2
  -3   1  -7 595.930 87.4158   4
  -3  -1  -7 628.529 89.7726   3
  -3  -1  -8 7190.10 364.423   2
  -3   1  -8 6598.52 300.142   4
  -3  -1  -8 6973.20 313.743   3
  -3  -1  -8 6302.86 337.840   1
  -3   1  -8 7647.40 396.103   3
   3   1   8 7776.56 350.262   3
   3  -1   8 6673.36 231.811   2
   3  -1   8 7636.73 382.354   4
   3   1   9 1947.62 190.052   3
  -3   1  -9 1826.35 205.321   3
   3  -1   9 1596.68 125.389   2
  -3  -1  -9 2007.03 202.102   1
  -3  -1  -9 1814.25 164.039   3
   3  -1   9 2181.49 228.261   4
  -3  -1  -9 1948.11 196.405   2
  -3   1  -9 1685.90 163.307   4
  -3   1 -10 915.628 150.816   3
  -3  -1 -10 795.823 135.359   1
   3  -1  10 573.599 91.5954   2
  -3  -1 -10 667.500 111.421   3
  -3  -1 -10 554.054 119.957   2
  -3   1 -10 500.617 100.809   4
  -3  -1 -11 1238.21 155.596   3
  -3   1 -11 1496.74 206.024   3
   3  -1  11 1420.30 144.436   2
  -3  -1 -11 1458.33 187.930   2
  -3   1 -11 1460.35 175.592   4
  -3  -1 -11 1649.48 203.507   1
  -3   1 -12 311.001 97.8852   4
   3  -1  12 152.345 53.7251   2
  -3   1 -12 145.316 76.0640   3
  -3  -1 -12 221.418 76.7821   3
  -3  -1 -12 259.412 83.4337   2
  -3  -1 -12 273.413 83.9272   1
  -3  -1 -13 1118.94 162.917   3
  -3  -1 -13 893.775 169.103   1
   3  -1  13 682.313 125.560   2
  -3   1 -13 704.353 160.075   3
  -3   1 -13 737.674 147.130   4
  -3  -1 -13 746.998 142.688   2
  -3   1 -14 2882.96 318.408   3
  -3  -1 -14 3050.26 308.986   1
  -3  -1 -14 2710.53 280.791   2
  -3   1 -14 2504.63 270.653   4
  -3  -1 -14 2652.00 250.187   3
  -3  -1 -15 8.43478 53.8930   2
  -3   1 -15-49.3908 58.8946   3
  -3  -1 -15-3.42594 43.3460   1
  -3   1 -15 80.9617 79.5307   4
  -3  -1 -16 5563.47 394.511   3
  -3   1 -16 7127.03 482.917   4
  -3   1 -16 7394.75 537.211   3
  -3  -1 -16 6082.82 474.072   1
  -3  -1 -16 5847.77 434.089   2
  -3   1 -17 461.071 151.303   3
  -3  -1 -17 297.293 105.067   3
  -3   1 -17 192.924 98.3748   4
  -3  -1 -17 153.650 92.8382   2
  -3  -1 -17 528.450 160.401   1
  -3   1 -18 198.138 111.749   3
  -3   1 -18-50.1976 93.2284   1
  -3  -1 -18 104.091 85.7980   1
  -3  -1 -18 23.0983 48.8753   3
  -3  -1 -18 3.75739 62.9217   2
  -3   1 -19 250.274 131.977   3
  -3  -1 -19 238.719 103.319   3
  -3   1 -19 83.6535 113.361   1
  -3  -1 -19 42.4091 96.1024   2
  -3  -1 -19 262.718 141.422   1
   3   2 -19 264.600 173.231   3
   3   2 -19 178.200 137.633   4
   3  -2 -19 54.6509 75.7424   2
   3  -2 -19 52.3727 85.3655   1
   3   2 -18 324.842 204.831   3
   3   2 -18 386.433 158.216   4
   3  -2 -18 41.4147 58.4876   2
   3  -2 -18 128.481 84.6388   1
   3  -2 -17 599.120 189.645   2
   3  -2 -17 197.051 90.1566   1
   3   2 -17 420.528 209.306   3
   3   2 -17 539.245 179.317   4
   3  -2 -16 943.380 224.706   2
   3  -2 -16 640.423 139.218   1
   3  -2 -16 773.227 204.077   4
   3   2 -16 1248.99 217.070   2
   3   2 -16 732.781 199.316   4
   3  -2 -15 2652.11 348.446   2
   3  -2 -15 2175.86 168.343   3
   3   2 -15 2549.18 343.041   4
   3   2 -15 2724.19 299.757   2
   3  -2 -15 2439.31 260.724   1
   3  -2 -15 3460.69 397.165   4
   3   2 -14 321.151 153.731   4
   3  -2 -14 426.174 152.331   4
   3  -2 -14 290.228 120.322   2
   3   2 -14 583.014 147.241   2
   3  -2 -14 268.278 90.9104   1
   3  -2 -14 422.212 72.6735   3
   3  -2 -13 578.998 75.0337   3
   3  -2 -13 525.727 142.623   4
   3   2 -13 664.595 177.783   4
   3   2 -13 534.359 137.966   2
   3  -2 -13 280.341 111.958   2
   3  -2 -13 498.098 115.283   1
   3   2 -12 548.949 122.580   2
   3  -2 -12 278.195 109.478   4
   3   2 -12 326.925 108.086   4
   3  -2 -12 297.807 106.417   2
   3  -2 -12 481.393 106.657   1
   3  -2 -12 305.684 49.7768   3
   3   2 -11 61.2085 65.7179   4
   3  -2 -11 37.0320 19.8650   3
   3  -2 -11 50.3962 61.5974   2
   3   2 -11 18.6806 45.6571   2
   3  -2 -11 115.495 85.4824   4
   3  -2 -11 52.6936 45.6189   1
   3  -2 -11 40.8173 35.0189   3
   3  -2 -10 3657.23 239.425   1
   3  -2 -10 3125.72 119.054   3
   3  -2 -10 3938.41 329.662   4
   3  -2 -10 3314.52 322.510   2
   3   2 -10 3603.79 347.295   4
   3   2 -10 3396.28 278.863   2
   3   2  -9 6190.44 437.120   4
   3  -2  -9 6436.76 299.581   1
   3   2  -9 6068.11 357.760   2
   3  -2  -9 6016.56 389.597   4
   3  -2  -9 6441.38 437.605   2
   3  -2  -8 374.010 109.913   2
   3  -2  -8 138.323 49.0407   1
   3   2  -8 162.195 62.5268   2
   3  -2  -8 252.497 78.0609   4
   3   2  -8 358.362 111.428   4
   3  -2  -7 222.562 74.6805   4
   3  -2  -7 290.041 102.675   2
   3  -2  -7 332.685 65.1540   1
   3   2  -7 247.751 95.3561   4
   3  -2  -6 23358.7 747.550   2
   3  -2  -6 23981.9 422.616   1
   3  -2  -6 23183.0 635.447   4
  -3   2   5 41683.6 836.143   4
   3  -2  -5 41277.5 937.468   2
   3   2  -5 43474.0 1042.51   4
   3   2  -4 6800.23 401.347   4
  -3   2   4 6192.67 296.832   4
   3  -2  -4 6783.98 363.560   2
   3  -2  -3 10411.5 272.134   3
   3  -2  -3 10860.5 444.085   2
  -3   2   3 10398.2 240.078   3
  -3   2   3 10655.6 469.869   2
   3   2  -3 10755.9 480.726   4
  -3   2   3 11353.1 373.527   4
  -3   2   2 4405.94 209.391   4
  -3   2   2 4992.15 306.694   2
  -3   2   2 4690.45 179.180   3
   3   2  -2 4747.10 338.398   1
   3  -2  -2 4376.28 200.734   3
  -3  -2   2 4494.16 351.234   1
   3  -2  -2 4429.47 263.805   2
   3   2  -1 40781.2 957.373   1
   3  -2  -1 36832.6 663.706   3
  -3  -2   1 42554.5 1018.75   1
   3  -2  -1 39899.2 733.338   2
  -3   2   1 39680.0 811.379   2
  -3   2   1 37911.2 533.342   4
  -3   2   1 39272.5 570.483   3
   3   2   0 1015.67 142.678   1
   3  -2   0 1434.28 131.883   2
  -3   2   0 1250.61 113.637   3
  -3   2   0 1123.37 136.180   2
   3   2   0 1111.06 121.197   2
  -3  -2   0 1058.05 160.962   1
  -3   2   0 1144.06 81.6326   4
   3  -2   1 98.3112 34.1695   2
  -3   2  -1 17.1035 41.1233   2
  -3   2  -1 54.2475 17.8690   4
   3   2   1 156.594 74.1752   1
  -3  -2  -1 103.439 62.8698   1
  -3   2  -1 12.4839 25.0634   3
   3   2   1 119.471 53.3517   2
  -3   2  -2 11696.0 395.500   2
   3   2   2 11014.5 439.848   3
   3   2   2 10900.2 427.741   2
   3   2   2 10581.9 421.693   1
   3  -2   2 10816.4 289.283   2
  -3  -2  -2 11411.4 471.907   1
  -3   2  -2 11119.0 397.096   3
  -3   2  -3 9613.42 400.851   3
   3   2   3 8727.74 378.534   1
   3   2   3 9207.55 367.750   3
  -3   2  -3 7903.91 269.281   2
   3  -2   3 8819.57 221.156   2
  -3  -2  -3 9376.56 416.341   1
   3  -2   4 920.103 55.8629   2
   3   2   4 818.139 106.859   3
  -3   2  -4 866.810 136.015   3
  -3   2  -4 632.145 58.5927   4
  -3  -2  -4 869.309 131.576   1
   3   2   4 778.387 119.210   1
  -3  -2  -5 1232.05 153.233   1
  -3   2  -5 1092.63 88.1376   4
   3  -2   5 1077.15 92.0496   4
   3   2   5 1192.02 115.716   3
  -3  -2  -6 14525.7 536.388   1
  -3   2  -6 15559.2 595.345   3
  -3  -2  -6 16170.9 584.464   2
   3   2   6 14647.3 409.134   3
   3  -2   6 14598.7 384.324   4
  -3  -2  -6 16038.2 508.716   3
  -3   2  -6 15666.0 374.329   4
  -3   2  -7 3888.25 315.934   3
   3   2   7 3527.48 204.493   3
  -3   2  -7 3746.06 204.421   4
  -3  -2  -7 3718.72 292.864   2
   3  -2   7 3511.65 215.249   4
  -3  -2  -7 3612.02 250.730   3
  -3  -2  -7 3506.20 268.623   1
  -3  -2  -8 22731.7 732.829   2
   3   2   8 22910.0 533.549   3
   3  -2   8 22539.4 599.279   4
  -3  -2  -8 23464.9 626.549   3
  -3   2  -8 22579.3 532.602   4
  -3  -2  -8 21573.8 690.387   1
  -3   2  -9 3254.30 323.414   3
  -3   2  -9 3438.19 228.047   4
   3   2   9 3424.89 221.899   3
  -3  -2  -9 2787.73 271.498   2
  -3  -2  -9 3347.94 235.205   3
   3  -2   9 3451.05 257.990   4
  -3  -2  -9 3114.81 271.359   1
   3   2  10 91.7725 47.3129   3
  -3   2 -10 55.7793 67.4373   3
  -3  -2 -10 180.064 67.0017   3
  -3  -2 -10 160.190 74.0272   2
  -3  -2 -10 133.285 64.9566   1
   3  -2  10 204.952 78.6336   4
  -3   2 -10 159.146 65.7033   4
   3   2  11 387.942 93.4770   3
  -3  -2 -11 355.102 99.9660   1
  -3   2 -11 566.861 115.631   4
  -3  -2 -11 497.174 109.206   3
  -3  -2 -11 269.216 105.229   2
  -3  -2 -12 9354.60 433.634   3
  -3   2 -12 11384.1 641.808   3
  -3  -2 -12 9749.02 552.615   2
  -3   2 -12 11274.1 498.278   4
  -3  -2 -12 9722.66 523.557   1
  -3   2 -13 9167.16 469.902   4
  -3  -2 -13 7667.54 506.318   2
  -3   2 -13 9975.72 617.535   3
  -3  -2 -13 7157.04 390.953   3
  -3  -2 -13 7958.16 490.129   1
  -3   2 -14 51.4507 51.4972   4
  -3   2 -14-1.70124 62.3787   3
  -3  -2 -14 71.7345 60.3541   1
  -3  -2 -14 131.533 67.8561   3
  -3  -2 -14 69.4786 49.6255   2
  -3   2 -15-78.1074 69.0163   3
  -3  -2 -15 25.5025 63.1012   1
  -3  -2 -15 91.5969 65.1962   3
  -3  -2 -15 12.5815 72.5072   2
  -3   2 -15-29.4166 43.3479   4
  -3   2 -16 363.908 139.530   3
  -3  -2 -16 388.669 135.981   1
  -3  -2 -16 273.451 83.1618   3
  -3  -2 -16 403.023 156.011   2
  -3   2 -16 467.119 128.808   4
  -3   2 -17 278.031 121.262   4
  -3  -2 -17 133.379 67.1603   3
  -3   2 -17 224.749 124.686   3
  -3  -2 -17 67.8606 78.4813   2
  -3  -2 -17 95.0012 77.9005   1
  -3   2 -18 13.2715 59.7338   4
  -3  -2 -18 7.88483 61.4507   2
  -3  -2 -18 99.1400 105.977   1
  -3   2 -18 39.0292 79.0434   3
   3   3 -17 177.724 126.628   4
   3   3 -17 428.730 221.339   3
   3  -3 -17 262.611 152.980   2
   3  -3 -17 60.0223 67.4113   1
   3   3 -16 327.390 149.792   4
   3   3 -16 273.742 175.206   3
   3  -3 -16 227.186 152.244   2
   3  -3 -16 115.277 79.0817   1
   3   3 -15 281.149 152.268   4
   3  -3 -15 103.332 119.498   2
   3  -3 -15 110.588 57.5961   1
   3  -3 -14 1620.87 287.681   2
   3  -3 -14 1306.44 184.842   1
   3   3 -13 398.784 114.889   2
   3  -3 -13 266.855 112.552   2
   3  -3 -13 670.556 135.661   1
   3   3 -13 325.563 128.524   4
   3   3 -12 4369.92 434.732   4
   3   3 -12 3662.06 300.261   2
   3  -3 -12 3917.94 295.358   1
   3  -3 -12 4067.21 405.192   2
   3   3 -11 624.092 182.841   4
   3   3 -11 818.726 147.740   2
   3  -3 -11 652.381 172.754   2
   3  -3 -11 681.879 121.546   1
   3   3 -10 362.031 133.914   4
   3  -3 -10 501.791 129.686   2
   3   3 -10 673.676 134.670   2
   3  -3 -10 491.761 103.132   1
   3  -3  -9 186.847 66.1458   1
   3  -3  -9 222.066 119.595   2
   3   3  -9 200.252 109.093   4
   3  -3  -8 34.4102 55.1689   2
   3  -3  -8 40.7737 44.4333   1
   3   3  -8 23.2954 61.8676   4
   3  -3  -7 549.882 80.7441   1
   3   3  -7 1008.88 184.742   4
   3  -3  -7 1127.70 189.748   2
   3  -3  -6 3118.61 298.415   2
   3   3  -6 3008.48 315.340   4
   3  -3  -5 5.85925 42.4624   2
   3  -3  -5 0.62997 18.5103   1
  -3   3   4 3408.12 134.909   3
   3  -3  -4 3866.69 300.132   2
  -3   3   3 66.4137 45.8462   4
   3  -3  -3 173.565 63.0645   2
  -3   3   3 166.446 31.7797   1
  -3   3   3 256.055 49.3554   3
   3   3  -3 301.157 99.0247   4
   3  -3  -2 26490.7 712.009   2
  -3   3   2 25042.4 580.672   4
  -3   3   2 25637.8 501.530   3
  -3   3   1 407.661 74.1223   3
  -3   3   1 462.455 74.3776   4
  -3   3   1 463.081 70.7111   1
  -3  -3   1 432.327 135.339   1
   3  -3  -1 519.892 94.0735   2
  -3   3   0 809.465 91.3192   4
  -3   3   0 1289.57 148.507   1
  -3   3   0 749.534 108.820   3
  -3  -3   0 1315.56 225.369   1
  -3   3   0 861.768 141.859   2
   3  -3   0 987.945 125.612   2
  -3   3  -1 16013.1 518.965   3
  -3   3  -1 17144.4 586.635   2
  -3  -3  -1 19622.2 756.288   1
  -3   3  -1 21125.0 661.788   1
   3  -3   1 17856.8 493.373   2
  -3   3  -2 44.0608 60.2793   1
  -3   3  -2 116.054 50.6963   2
  -3   3  -2 175.843 66.1379   3
   3  -3   2 151.619 48.0473   2
   3   3   2 117.782 79.8969   3
  -3  -3  -2 80.9924 66.8088   1
  -3   3  -2 167.149 51.0562   4
   3  -3   3 3410.07 186.658   2
  -3  -3  -3 3010.17 292.026   1
  -3   3  -3 3398.86 278.439   3
  -3   3  -3 2890.70 213.339   2
  -3   3  -3 3078.17 189.160   4
   3   3   3 2502.65 259.469   3
  -3   3  -4 92.1894 48.8730   2
  -3   3  -4 226.931 89.3788   3
   3   3   4 109.227 69.1703   3
  -3  -3  -4 114.566 66.3746   1
  -3   3  -4 247.400 59.9272   4
  -3  -3  -5 2313.00 249.629   1
  -3   3  -5 2102.39 244.672   3
   3   3   5 1729.78 189.684   3
  -3   3  -5 1896.18 148.186   4
   3   3   6 112.375 49.5199   3
  -3  -3  -6 128.506 71.2447   1
  -3   3  -6 188.957 53.8941   4
   3   3   7 663.038 105.988   3
  -3  -3  -7 957.223 171.150   1
  -3   3  -7 807.957 162.831   3
  -3   3  -7 1087.84 124.302   4
  -3   3  -8 355.279 80.6814   4
   3   3   8 357.900 76.3840   3
  -3   3  -8 409.473 106.465   3
  -3  -3  -8 231.500 82.3734   1
  -3  -3  -8 290.608 98.4693   2
  -3  -3  -9 17135.4 707.390   1
  -3  -3  -9 17554.2 758.443   2
  -3   3  -9 19278.2 551.139   4
  -3   3  -9 17287.7 781.009   3
   3   3   9 15485.3 428.148   3
  -3  -3 -10 6515.98 449.581   1
  -3  -3 -10 6058.69 456.353   2
  -3   3 -10 7491.75 370.003   4
  -3   3 -10 6972.53 516.105   3
  -3  -3 -11 4245.33 403.376   2
  -3   3 -11 4120.25 283.732   4
  -3   3 -11 4772.00 444.764   3
  -3  -3 -11 4264.59 375.216   1
  -3  -3 -12 939.839 190.237   2
  -3   3 -12 1011.55 149.092   4
  -3   3 -12 824.210 214.409   3
  -3  -3 -12 985.186 185.336   1
  -3   3 -13 926.906 229.874   3
  -3  -3 -13 993.994 193.887   1
  -3  -3 -13 784.529 180.846   2
  -3   3 -13 845.946 150.136   4
  -3  -3 -14 41.5254 54.6120   1
  -3   3 -14 247.991 92.2752   4
  -3  -3 -14 36.0290 57.0482   2
  -3   3 -14 117.257 119.835   3
  -3   3 -15 138.619 78.7454   4
  -3   3 -15 22.5240 69.0803   3
  -3  -3 -15 66.7470 90.3676   1
  -3  -3 -15-27.1295 63.8669   2
  -3  -3 -16 1.80490 55.7046   1
  -3   3 -16-24.5148 78.0794   3
  -3  -3 -16-9.44566 66.9846   2
  -3  -3 -17 83.0548 101.847   1
  -3   3 -17 40.2161 88.5668   3
  -3  -3 -17 18.7863 83.7161   2
   3   4 -15-93.2939 138.143   3
   3  -4 -15 25.5495 76.3871   2
   3  -4 -14 210.903 136.170   2
   3   4 -14 412.110 186.698   4
   3   4 -13 263.604 139.716   4
   3  -4 -13 132.586 108.567   2
   3  -4 -12 6.58875 58.3291   2
   3   4 -12 201.322 134.098   4
   3   4 -11 154.282 116.929   4
   3  -4 -11 112.057 124.390   2
   3  -4 -10 530.984 154.387   2
   3   4 -10 572.599 194.506   4
   3  -4  -9 162.642 66.5165   1
   3  -4  -9 52.5324 58.1721   2
   3   4  -9 138.477 101.608   4
   3  -4  -8 2618.97 320.755   2
   3   4  -8 3074.82 369.969   4
   3  -4  -8 1879.75 166.155   1
   3  -4  -7 2601.02 311.666   2
   3   4  -7 2283.49 308.175   4
   3  -4  -6 531.659 133.939   2
   3   4  -6 341.402 134.557   4
   3  -4  -5 1855.22 245.873   2
   3   4  -5 2058.53 294.026   4
  -3   4   4 218.335 42.4236   3
   3  -4  -4 283.992 92.3865   2
   3   4  -4 444.258 142.052   4
   3   4  -3 1942.18 271.783   4
  -3   4   3 1623.03 131.749   3
   3  -4  -3 2206.44 252.315   2
  -3   4   2 98.6782 45.3769   3
   3  -4  -2 102.100 63.1769   2
  -3   4   2 120.239 48.7848   1
  -3   4   1 140.160 53.8553   1
  -3   4   1 51.7820 42.7419   3
   3  -4  -1 95.6194 56.6958   2
  -3   4   0 192.855 88.6110   1
  -3   4   0 82.7134 45.8279   4
   3  -4   0 244.086 83.3071   2
  -3   4   0 80.3871 46.0436   3
  -3  -4  -1 690.572 183.387   1
  -3   4  -1 1024.66 153.902   3
   3  -4   1 862.630 131.193   2
  -3   4  -1 914.729 171.781   1
   3  -4   2 1821.03 178.566   2
  -3   4  -2 1675.77 208.388   3
  -3   4  -2 1791.39 191.949   4
  -3  -4  -2 2346.12 323.172   1
  -3   4  -3 818.727 162.491   3
  -3   4  -3 614.355 108.763   4
  -3  -4  -4 598.278 172.476   1
  -3   4  -4 995.197 186.106   3
  -3   4  -4 552.678 104.527   4
  -3   4  -5 11729.8 614.680   3
  -3  -4  -5 13064.8 695.580   1
  -3   4  -5 11635.5 470.568   4
  -3   4  -6 5381.68 435.447   3
  -3   4  -6 5476.28 310.722   4
  -3  -4  -6 5701.40 455.736   1
  -3   4  -7 221.384 113.139   3
  -3   4  -7 183.579 76.1929   4
  -3  -4  -7-6.57862 82.5968   1
  -3   4  -8 705.675 164.007   3
  -3  -4  -8 287.863 129.911   1
  -3   4  -9 394.572 136.767   3
  -3  -4  -9 273.834 117.657   1
  -3  -4 -10 80.4702 94.2667   1
  -3   4 -10 43.8508 83.7252   3
  -3   4 -11 20.2486 86.1402   3
  -3  -4 -11-13.7601 59.6491   1
  -3   4 -12 396.038 172.949   3
  -3  -4 -12 498.187 155.961   1
  -3  -4 -13 1695.98 304.825   1
  -3   4 -13 725.175 222.946   3
  -3   4 -14 32.0506 75.7560   3
  -3  -4 -14 161.410 125.644   1
   3   5 -10 155.036 174.583   4
   3  -5 -10 95.9724 109.491   2
   3   5  -9 453.373 178.833   4
   3  -5  -9 462.084 166.067   2
   3   5  -8-69.1214 122.157   4
   3  -5  -8 13.4601 56.1285   2
   3  -5  -7 204.272 115.336   2
   3   5  -7 95.7969 117.287   4
   3  -5  -6 44.8747 78.2645   2
   3   5  -6 373.982 202.869   4
   3  -5  -5 746.534 204.771   2
   3   5  -5 429.915 164.228   4
   3  -5  -4 128.861 87.3893   2
   3   5  -4 54.4694 105.059   4
   3   5  -3 482.877 195.666   4
   3  -5  -3 55.9044 62.2579   2
   3   5  -2 147.831 98.5884   4
   3  -5  -2 153.285 83.9910   2
  -3   5   1 56.5890 51.4740   3
   3  -5  -1-7.66990 43.6373   2
  -3   5   0-22.1698 42.9132   3
  -3   5  -1 1713.06 219.320   3
  -3   5  -2 7077.27 453.399   3
  -3  -5  -3 1216.88 266.933   1
  -3   5  -3 690.240 149.804   3
  -3   5  -4-44.9748 64.3786   3
  -3  -5  -4 96.2639 114.418   1
  -3  -5  -5 498.782 162.644   1
  -3   5  -5 870.041 196.444   3
  -3  -5  -6 109.876 116.257   1
  -3   5  -6 41.8771 82.4852   3
  -3  -5  -7 13.8712 76.0631   1
  -3   5  -7 41.3569 95.4602   3
  -3   5  -8 135.971 113.478   3
  -3  -5  -8 199.672 127.207   1
  -3   5  -9 592.315 194.501   3
  -3  -5  -9 555.795 180.997   1
  -3   5 -10 126.119 115.673   3
  -3  -5 -10 214.065 146.306   1
   4   0 -20 140.390 159.410   3
   4   0 -20-35.5742 91.1868   2
   4   0 -20 139.987 131.028   4
   4   0 -19 23.9355 62.1998   2
   4   0 -19 176.656 139.291   3
   4   0 -19-120.104 121.818   4
   4   0 -18 247.228 149.610   4
   4   0 -18 69.4430 85.6899   3
   4   0 -18 43.8800 107.699   2
   4   0 -17 161.786 96.5582   4
   4   0 -17 5.93360 75.5580   3
   4   0 -17-7.59122 53.3627   2
   4   0 -16 247.286 140.233   4
   4   0 -16 82.4188 81.2172   2
   4   0 -15-47.5230 77.2028   4
   4   0 -15 76.7685 94.3313   2
   4   0 -14 24395.2 946.804   2
   4   0 -14 22253.6 939.503   4
   4   0 -13 85.6448 78.1633   2
   4   0 -13 21.0964 61.6816   4
   4   0 -12 27504.5 967.754   4
   4   0 -12 29031.4 954.779   2
   4   0 -11 40.7322 58.3331   4
   4   0 -11 11.7567 56.2806   2
   4   0 -10 14303.9 647.167   2
   4   0 -10 14825.1 661.203   4
   4   0  -9 3.22543 53.0162   4
   4   0  -9 39.5119 49.9431   2
   4   0  -8 272.866 92.8280   4
   4   0  -8 286.905 83.2686   2
  -4   0   7 65.9686 73.7352   2
   4   0  -7-16.9696 31.7929   2
   4   0  -7-24.1219 40.7018   4
  -4   0   6 7815.43 414.167   4
   4   0  -6 8608.87 422.112   4
   4   0  -5 26.3981 47.1321   2
   4   0  -5 27.7208 32.4428   4
  -4   0   5-35.7818 32.3467   4
   4   0  -4 149401. 1631.47   2
  -4   0   4 149166. 1579.48   4
   4   0  -3 49.5319 35.8671   1
   4   0  -3 57.1056 48.0542   4
   4   0  -3-15.0949 37.0682   2
  -4   0   3 34.8104 35.2640   4
   4   0  -2 59037.9 903.552   4
  -4   0   2 55699.1 847.312   4
   4   0  -2 57694.1 872.403   1
  -4   0   1-38.1118 25.9459   3
   4   0  -1 25.8820 16.8257   1
  -4   0   1 33.6833 25.1035   1
   4   0  -1 9.44575 28.1282   4
  -4   0   0 21978.4 455.864   1
   4   0   0 22759.5 509.294   3
  -4   0   0 21216.1 493.829   3
  -4   0  -1-40.4244 33.9458   1
   4   0   1 2.26415 23.5493   3
  -4   0  -1-26.8249 29.7446   3
  -4   0  -2 161721. 1238.54   1
   4   0   2 161613. 1326.55   3
  -4   0  -2 160115. 1326.24   3
   4   0   3 61.7306 41.8296   3
  -4   0  -3-12.7982 25.1235   3
  -4   0  -3 58.9681 37.6441   1
   4   0   4 12421.5 405.039   3
  -4   0  -4 12826.3 395.535   3
  -4   0  -4 12784.0 388.426   1
  -4   0  -5-7.51263 23.0369   3
   4   0   5 27.8834 17.5187   2
  -4   0  -5 32.6424 38.4997   1
   4   0   6 11756.4 365.614   2
   4   0   6 10613.9 371.297   4
   4   0   6 11420.0 423.005   3
  -4   0  -6 11160.9 405.777   3
  -4   0  -6 10527.3 401.874   1
  -4   0  -7 26.9800 37.2959   3
   4   0   7 32.7131 38.8997   4
  -4   0  -7 47.7413 52.0719   1
   4   0   7 0.31367 25.9875   2
   4   0   8-0.11375 31.2823   2
  -4   0  -8 66.2038 48.8574   3
  -4   0  -8 17.2684 45.6700   1
   4   0   9 85.1897 90.6929   2
  -4   0  -9 27.1839 49.4068   1
  -4   0  -9 40.7026 51.6031   3
  -4   0 -10 28.1653 30.1204   3
   4   0  10-32.2513 37.6390   2
  -4   0 -10-12.7016 57.6911   1
  -4   0 -11 13.8228 46.2561   3
  -4   0 -11-66.8936 47.3370   1
  -4   0 -12 3171.29 281.492   3
  -4   0 -12 2710.72 274.851   1
  -4   0 -13 17.0466 54.4353   1
  -4   0 -13 26.2875 53.3782   3
  -4   0 -14 241.645 95.4371   1
  -4   0 -14 276.091 108.699   3
  -4   0 -15 38.1324 70.2312   3
  -4   0 -15-19.2565 48.9745   1
  -4   0 -16 226.899 84.9712   1
  -4   0 -16 396.955 126.045   3
  -4   0 -17 110.078 82.4738   3
  -4   0 -17-124.917 99.7154   1
  -4   0 -18 7870.98 592.182   1
  -4   0 -18 7179.10 518.760   3
  -4   0 -19-0.34162 60.4093   3
  -4   0 -19 86.6113 125.617   1
   4   1 -20 354.493 176.790   4
   4  -1 -20 231.821 150.284   4
   4   1 -20 337.641 177.480   3
   4  -1 -20 295.518 156.655   2
   4  -1 -19 575.511 197.134   4
   4   1 -19 1234.36 280.857   3
   4  -1 -19 689.636 170.340   3
   4   1 -19 966.883 215.967   2
   4  -1 -19 354.383 137.874   2
   4   1 -19 860.003 247.226   4
   4  -1 -18 101.758 93.9908   4
   4   1 -18 77.7736 100.794   3
   4  -1 -18 351.473 117.465   3
   4   1 -18 28.7288 63.5297   2
   4  -1 -18 88.4342 100.019   2
   4   1 -18 343.770 160.739   4
   4  -1 -17-12.3739 62.2321   4
   4   1 -17 168.711 100.481   2
   4  -1 -17 98.4092 76.4044   3
   4  -1 -17 207.844 118.576   2
   4   1 -17-7.69866 92.2445   4
   4   1 -16 56.3670 62.4842   4
   4  -1 -16-53.5145 72.6800   2
   4  -1 -16 63.5611 66.5744   3
   4  -1 -16 37.7552 61.4092   4
   4   1 -16 117.273 102.997   2
   4  -1 -15 1685.35 213.532   3
   4  -1 -15 1422.21 250.137   2
   4   1 -15 1153.15 233.769   4
   4  -1 -15 1249.16 237.126   4
   4   1 -15 1628.22 245.311   2
   4  -1 -14 926.741 159.847   3
   4  -1 -14 927.905 194.843   2
   4   1 -14 1054.53 216.657   4
   4  -1 -14 1088.41 221.808   4
   4   1 -14 1020.09 200.266   2
   4  -1 -13 187.921 101.882   2
   4   1 -13 167.335 86.3686   4
   4  -1 -13 142.063 92.0807   4
   4   1 -13 78.7626 59.0670   2
   4   1 -12 1313.50 227.562   4
   4  -1 -12 1092.74 198.607   2
   4   1 -12 927.219 171.035   2
   4  -1 -12 1059.87 188.143   4
   4  -1 -11 3908.01 342.568   4
   4  -1 -11 3619.22 346.917   2
   4   1 -11 3955.11 384.208   4
   4   1 -11 3448.87 313.652   2
   4  -1 -10 168.915 73.4213   4
   4   1 -10 332.378 104.757   2
   4  -1 -10 253.315 93.4318   2
   4   1 -10 216.867 82.7167   4
   4   1  -9 404.948 120.329   4
   4  -1  -9 359.882 91.0183   2
   4  -1  -9 188.187 71.8517   4
   4   1  -8 14244.3 598.997   2
   4  -1  -8 14480.4 586.300   4
   4  -1  -8 13930.5 604.658   2
   4   1  -8 14584.0 640.426   4
   4  -1  -7 8594.66 456.396   2
   4   1  -7 9514.74 503.447   4
   4   1  -7 9993.92 493.150   2
   4  -1  -7 7998.32 402.983   4
   4  -1  -6 27898.8 596.374   3
   4   1  -6 27642.0 758.942   2
   4  -1  -6 28354.7 823.203   2
  -4   1   6 27285.7 748.192   4
   4   1  -6 27456.4 815.673   4
   4  -1  -6 26659.8 704.889   4
  -4  -1   5 44983.8 992.833   4
   4  -1  -5 51672.1 755.210   3
   4  -1  -5 48288.6 1043.66   2
  -4   1   5 50910.4 1071.19   2
   4   1  -5 45038.4 988.510   4
   4  -1  -5 46082.4 866.810   4
  -4   1   5 46979.2 930.052   4
   4  -1  -4 4808.09 210.472   3
  -4  -1   4 3512.45 260.318   4
   4   1  -4 4084.11 309.213   1
   4  -1  -4 4597.50 214.521   1
   4  -1  -4 4381.27 296.713   2
  -4   1   4 5563.81 344.251   2
  -4   1   4 4366.78 268.057   4
   4  -1  -4 4291.85 254.492   4
   4   1  -4 4340.28 308.044   4
  -4   1   3 8757.95 346.600   4
   4  -1  -3 8116.51 230.886   1
  -4   1   3 8908.97 308.715   3
  -4  -1   3 8544.44 438.618   1
   4  -1  -3 8130.72 273.689   3
   4   1  -3 7960.25 404.907   1
   4  -1  -3 8169.50 383.175   2
   4   1  -3 8265.40 401.734   4
   4  -1  -3 8273.23 325.727   4
  -4   1   3 8813.96 416.446   2
  -4   1   2 2230.53 138.875   3
   4   1  -2 1744.69 183.269   1
  -4  -1   2 1992.08 201.834   1
   4  -1  -2 2292.39 93.6155   1
  -4   1   2 2597.80 223.322   2
   4  -1  -2 2289.09 198.173   2
  -4   1   2 2123.31 158.152   4
  -4   1   2 1772.26 111.405   1
   4  -1  -2 2055.07 145.025   4
   4  -1  -2 2287.20 144.683   3
   4   1  -2 2343.80 206.629   4
   4  -1  -1 10706.8 200.876   1
   4  -1  -1 10234.8 282.280   4
  -4   1   1 10343.0 222.770   1
   4   1  -1 9897.39 412.703   1
  -4  -1   1 9900.43 419.540   1
   4   1  -1 9781.93 429.400   3
  -4   1   1 9723.37 296.154   4
   4  -1  -1 10344.4 409.478   2
   4  -1  -1 10799.7 322.663   3
  -4   1   1 9676.90 299.411   3
  -4   1   1 10725.6 420.450   2
  -4   1   0 4131.76 157.712   4
   4   1   0 4448.59 262.464   1
   4  -1   0 4290.87 211.854   3
  -4   1   0 4572.72 207.182   3
  -4  -1   0 4432.84 276.607   1
   4   1   0 3877.32 258.553   3
   4  -1   0 4322.78 158.558   1
  -4   1   0 4328.25 143.799   1
   4  -1   0 3922.33 226.122   2
   4  -1   0 4183.12 147.562   4
  -4   1  -1 674.205 66.1769   1
   4   1   1 578.532 90.5951   1
   4  -1   1 470.897 75.9559   2
  -4  -1  -1 698.059 101.993   1
  -4   1  -1 635.479 81.7045   3
   4   1   1 543.500 95.6300   3
  -4  -1  -1 675.141 107.194   3
   4  -1   1 412.942 39.6516   4
  -4   1  -2 44456.0 712.844   3
  -4   1  -2 44199.2 593.027   1
   4   1   2 44787.0 775.971   3
   4  -1   2 44378.7 680.975   2
   4   1   2 46678.1 798.163   1
   4   1   3 97735.3 1095.18   3
  -4  -1  -3 99771.0 1198.63   3
  -4   1  -3 98370.8 1030.62   1
  -4  -1  -3 98941.4 1187.79   1
  -4   1  -3 99775.1 1129.63   3
   4   1   3 97411.3 1155.67   1
  -4  -1  -4 40575.1 740.464   3
   4  -1   4 42422.1 522.886   4
  -4   1  -4 40590.9 761.742   3
  -4  -1  -4 41664.9 780.284   1
   4   1   4 41665.9 719.249   3
  -4   1  -4 40821.3 708.482   1
   4   1   4 40831.4 753.000   1
  -4   1  -5 32031.2 707.106   3
  -4  -1  -5 33205.4 723.875   1
   4   1   5 32057.7 648.512   3
  -4   1  -5 31427.6 680.960   1
   4   1   5 30937.6 700.783   1
   4  -1   5 32830.0 538.446   4
   4  -1   6 6329.05 201.557   2
  -4   1  -6 6351.35 338.222   3
   4   1   6 6106.99 290.681   3
  -4  -1  -6 6277.50 306.885   3
   4  -1   6 6541.70 276.244   4
  -4  -1  -6 6289.14 333.947   1
   4   1   7 486.842 88.2857   3
  -4   1  -7 351.008 92.5116   3
  -4  -1  -7 370.533 78.2951   3
   4  -1   7 632.550 103.843   4
  -4  -1  -7 485.591 96.4677   1
   4  -1   7 482.190 58.0516   2
  -4   1  -8 940.209 145.210   3
   4   1   8 664.976 114.291   3
  -4  -1  -8 802.844 115.301   3
  -4  -1  -8 646.009 119.782   1
   4  -1   8 744.851 128.563   4
   4  -1   8 739.460 80.8399   2
   4  -1   9 41.2440 41.8096   4
   4  -1   9 65.3585 31.6718   2
  -4  -1  -9 46.4618 45.7522   3
  -4   1  -9 176.911 77.6399   3
  -4  -1  -9 24.9671 29.2769   1
  -4  -1 -10 2187.10 205.013   3
  -4   1 -10 2183.14 231.621   3
  -4  -1 -10 1840.04 210.500   1
   4  -1  10 1963.42 150.859   2
   4  -1  11 788.724 107.972   2
  -4  -1 -11 1015.74 169.146   1
  -4   1 -11 870.970 160.679   3
  -4  -1 -11 796.346 131.898   3
   4  -1  12 151.790 61.4431   2
  -4   1 -12 49.0383 49.4160   3
  -4  -1 -12 63.1429 54.6851   3
  -4  -1 -12 297.738 95.1194   2
  -4  -1 -12 147.617 73.2037   1
  -4  -1 -13 75.8652 61.5131   1
   4  -1  13 236.448 67.6656   2
  -4   1 -13 165.287 67.4335   3
  -4  -1 -13 216.692 82.1517   3
  -4  -1 -14 1941.86 247.745   2
  -4   1 -14 1949.22 265.470   3
  -4  -1 -14 1977.78 224.193   3
  -4  -1 -14 2170.88 267.231   1
  -4   1 -14 2697.31 321.082   1
  -4   1 -15 361.147 123.324   1
  -4   1 -15 444.902 127.609   3
  -4  -1 -15 353.907 106.838   3
  -4  -1 -15 337.884 113.627   2
  -4  -1 -15 388.170 120.799   1
  -4  -1 -16 1663.99 222.496   3
  -4   1 -16 2009.35 287.173   3
  -4   1 -16 2408.92 320.215   1
  -4  -1 -16 2101.37 274.798   1
  -4   1 -17 1439.67 251.515   3
  -4  -1 -17 1234.61 201.629   3
  -4  -1 -17 1463.76 240.838   1
  -4   1 -17 1339.72 262.628   1
  -4  -1 -18-15.7898 75.2783   3
  -4   1 -18 28.4634 79.7494   1
  -4  -1 -18 148.513 85.2699   1
  -4  -1 -19-72.9420 74.1594   3
  -4   1 -19 64.9001 69.6757   3
  -4   1 -19-99.0080 89.5852   1
  -4  -1 -19-15.9966 65.3620   1
   4   2 -19 168.218 127.433   4
   4  -2 -19-3.13260 78.9421   4
   4  -2 -19 286.221 130.341   1
   4  -2 -19 198.832 144.715   2
   4   2 -18 177.091 130.003   4
   4  -2 -18-39.6642 64.9164   4
   4   2 -18 44.9140 100.022   3
   4  -2 -18-54.9646 95.4168   2
   4  -2 -18 106.063 95.5658   1
   4   2 -17-21.6341 71.0563   4
   4  -2 -17 6.59154 68.6247   4
   4  -2 -17 37.7377 86.2496   2
   4  -2 -17 104.704 80.1681   1
   4   2 -16 313.709 144.124   4
   4  -2 -16 118.536 92.4714   4
   4   2 -16 12.6149 81.8908   2
   4  -2 -16 232.054 124.087   2
   4  -2 -16 103.617 82.6561   1
   4   2 -15 351.084 130.876   4
   4  -2 -15 574.535 170.701   4
   4   2 -15 445.338 137.261   2
   4  -2 -15 384.834 149.518   2
   4  -2 -15 391.515 78.8452   3
   4  -2 -15 266.320 97.8026   1
   4   2 -14 150.584 113.671   4
   4  -2 -14 115.727 106.425   4
   4  -2 -14 3.11231 28.5263   3
   4  -2 -14 13.4533 71.9134   2
   4  -2 -14 60.0109 65.8863   1
   4   2 -14 53.2543 72.2763   2
   4   2 -13 429.893 150.533   4
   4  -2 -13 507.076 139.474   4
   4  -2 -13 532.912 80.8772   3
   4   2 -13 593.486 142.659   2
   4  -2 -13 890.896 199.565   2
   4  -2 -13 614.332 126.269   1
   4   2 -12-24.6709 61.4710   4
   4   2 -12 12.0849 53.5871   2
   4  -2 -12-67.3903 53.7904   4
   4  -2 -12 25.6759 28.5755   3
   4  -2 -12-27.2997 38.8896   1
   4  -2 -12 108.475 63.4860   3
   4  -2 -12 86.0509 56.9726   2
   4  -2 -11 7496.59 252.611   3
   4  -2 -11 8093.46 312.998   3
   4  -2 -11 7810.76 532.373   2
   4   2 -11 7747.99 535.863   4
   4  -2 -11 7100.34 471.094   4
   4  -2 -11 7642.95 375.548   1
   4  -2 -10 2093.84 181.808   1
   4  -2 -10 1877.42 116.479   3
   4  -2 -10 1664.42 117.441   3
   4   2 -10 1808.78 259.464   4
   4   2 -10 1848.47 227.787   2
   4  -2 -10 1790.98 224.936   4
   4  -2 -10 1959.87 253.466   2
   4  -2  -9 318.029 48.0547   3
   4   2  -9 240.976 90.6821   2
   4  -2  -9 360.640 97.5464   4
   4  -2  -9 415.682 125.101   2
   4  -2  -9 366.987 70.7716   1
   4   2  -9 239.822 95.1388   4
   4  -2  -8 6268.03 191.963   3
   4   2  -8 7905.11 511.873   4
   4  -2  -8 7533.86 482.782   2
   4   2  -8 6459.89 409.608   2
   4  -2  -8 8065.49 435.693   4
   4  -2  -8 8070.78 294.543   1
   4  -2  -7 12395.9 235.107   3
   4   2  -7 12694.2 633.563   4
   4  -2  -7 12727.5 330.068   1
   4  -2  -7 11372.1 481.015   4
   4  -2  -7 12656.0 610.975   2
   4  -2  -6-4.98575 14.9300   3
   4  -2  -6-2.05699 13.9289   1
   4  -2  -6-3.30941 30.6982   4
   4  -2  -5 71805.6 1066.13   4
   4   2  -5 70167.7 1396.41   4
   4  -2  -5 68597.4 625.411   3
  -4   2   5 68482.0 1118.16   4
   4  -2  -5 72505.3 1327.58   2
  -4   2   4 443.305 87.7012   4
   4  -2  -4 470.188 57.3118   3
  -4   2   4 436.078 67.5351   3
   4  -2  -4 416.416 98.7539   2
   4  -2  -4 418.613 77.8390   4
   4   2  -3 5768.39 384.379   4
   4  -2  -3 6543.79 244.537   3
  -4   2   3 6196.82 224.811   3
  -4   2   3 5593.12 354.449   2
   4  -2  -3 6850.25 385.902   2
  -4   2   3 6266.78 289.402   4
   4  -2  -2 2573.09 169.194   3
  -4  -2   2 2511.76 278.166   1
  -4   2   2 2835.50 248.640   2
  -4   2   2 2285.25 159.931   4
   4  -2  -2 2239.76 204.965   2
  -4   2   2 2307.14 138.058   3
  -4   2   1 1113.53 98.2950   4
   4  -2  -1 1072.58 121.474   3
  -4   2   1 1042.54 103.305   3
  -4  -2   1 1032.50 164.432   1
   4  -2  -1 786.561 113.484   2
  -4   2   1 1176.81 154.898   2
   4  -2   0 25443.8 617.701   3
  -4   2   0 26230.7 535.350   3
  -4  -2   0 27266.8 811.435   1
  -4   2   0 26801.5 696.818   2
   4  -2   0 28370.9 639.920   2
  -4   2  -1 31.5644 45.5502   2
   4  -2   1 165.554 52.8658   2
   4  -2   1 13.7866 34.2215   3
  -4  -2  -1 18.0386 35.2689   1
  -4   2  -1 104.522 42.0515   3
   4   2   1 62.4571 56.1323   3
  -4   2  -2 39386.9 766.416   3
  -4  -2  -2 42040.3 952.171   1
   4  -2   2 37971.6 844.382   3
   4   2   2 43675.1 926.121   3
  -4   2  -2 40559.9 762.781   2
   4  -2   2 44927.5 692.333   2
  -4  -2  -3 6198.75 359.635   1
   4  -2   3 6665.91 234.265   2
  -4   2  -3 5811.51 308.377   3
   4   2   3 6208.61 317.041   3
  -4  -2  -4 3898.18 290.031   1
  -4   2  -4 4190.64 275.252   3
   4   2   4 4256.97 255.656   3
   4  -2   4 3524.73 136.278   2
  -4  -2  -5 5406.36 339.857   1
  -4   2  -5 5367.89 334.900   3
  -4  -2  -5 5337.83 329.667   3
   4   2   5 5211.20 267.196   3
  -4  -2  -6 379.722 93.5331   1
  -4   2  -6 219.287 72.7362   3
   4   2   6 322.378 71.2452   3
  -4   2  -6 310.624 46.8752   4
   4  -2   6 399.406 61.5194   4
  -4  -2  -6 345.828 91.2647   3
  -4  -2  -7 2682.35 265.982   1
   4  -2   7 2272.42 160.690   4
   4   2   7 2216.79 175.369   3
  -4  -2  -7 2215.44 224.049   3
  -4   2  -7 2509.24 144.464   4
  -4   2  -7 2130.98 233.723   3
  -4   2  -8 6782.42 265.682   4
   4   2   8 6353.07 311.492   3
  -4  -2  -8 7381.81 386.944   3
   4  -2   8 6837.16 317.621   4
  -4   2  -8 6778.55 420.193   3
  -4  -2  -8 6737.31 399.411   1
  -4   2  -9 25.9095 24.1340   4
   4  -2   9-56.8418 54.4913   4
  -4   2  -9 81.6108 54.2475   3
   4   2   9-37.3779 36.2071   3
  -4  -2  -9 55.1982 46.5079   3
  -4  -2  -9 45.4145 72.3007   1
  -4   2 -10 242.341 95.7598   3
  -4  -2 -10 232.310 85.3494   1
  -4   2 -10 219.780 64.5093   4
  -4  -2 -10 170.761 80.1059   3
   4  -2  10 122.194 68.4800   4
  -4  -2 -11 4700.58 323.467   3
  -4  -2 -11 4919.39 381.791   1
  -4   2 -11 5398.82 309.352   4
  -4   2 -12 2419.14 289.413   3
  -4  -2 -12 2677.20 256.488   3
  -4  -2 -12 2237.61 271.719   1
  -4   2 -12 2371.91 216.803   4
  -4  -2 -12 2319.75 272.926   2
  -4  -2 -13 7404.82 496.639   1
  -4  -2 -13 7520.83 500.641   2
  -4   2 -13 8662.39 574.961   3
  -4  -2 -13 6922.39 414.081   3
  -4   2 -13 7834.69 410.617   4
  -4  -2 -14 1958.79 272.556   2
  -4  -2 -14 1559.31 239.210   1
  -4   2 -14 2199.85 299.627   3
  -4  -2 -14 1853.15 222.812   3
  -4   2 -14 2173.66 229.748   4
  -4   2 -15 130.814 85.9970   4
  -4   2 -15-13.7958 58.9779   3
  -4  -2 -15 37.2920 50.3481   3
  -4  -2 -15 131.400 97.1370   2
  -4  -2 -15 95.4281 60.4453   1
  -4   2 -16 190.387 115.879   3
  -4  -2 -16 408.783 133.132   3
  -4  -2 -16 91.4665 77.0545   1
  -4   2 -17 41.5630 89.7144   3
  -4  -2 -17 123.082 80.0664   3
  -4  -2 -17-29.6532 71.9624   1
  -4   2 -18 321.433 179.540   3
  -4  -2 -18 195.037 119.136   1
   4   3 -17-69.9534 102.334   4
   4  -3 -17-1.40360 81.3778   2
   4   3 -16 106.386 127.057   4
   4  -3 -16 52.4440 93.7465   2
   4  -3 -16 50.0120 72.0663   1
   4   3 -15 275.417 126.882   4
   4  -3 -15 315.288 112.627   1
   4  -3 -15 416.923 162.150   2
   4  -3 -14 128.875 120.456   2
   4   3 -14 55.4442 74.2531   4
   4  -3 -14 119.453 68.2113   1
   4   3 -13 80.4748 100.466   4
   4   3 -13 27.0385 57.1815   2
   4  -3 -13-7.67505 64.1923   2
   4  -3 -13-6.10577 45.3008   1
   4   3 -12 437.227 146.462   4
   4  -3 -12 257.966 84.1081   1
   4   3 -12 337.291 114.084   2
   4  -3 -12 132.450 92.2419   2
   4  -3 -11 352.281 87.8354   1
   4   3 -11 481.960 131.134   2
   4  -3 -11 448.895 134.908   2
   4   3 -11 629.737 185.450   4
   4   3 -10-46.5637 48.6216   2
   4  -3 -10 14.8071 72.7763   2
   4  -3 -10 9.01918 33.2064   1
   4   3 -10 90.7527 82.1429   4
   4  -3  -9 67.2876 25.5624   1
   4  -3  -9 275.436 109.397   2
   4   3  -9 229.528 121.019   4
   4  -3  -8 1493.98 119.016   1
   4  -3  -8 1892.08 261.965   2
   4   3  -8 2053.24 283.084   4
   4   3  -7 572.287 159.189   4
   4  -3  -7 331.589 51.0394   1
   4  -3  -7 778.654 159.098   2
   4   3  -6 7592.32 515.865   4
   4  -3  -6 6750.63 442.212   2
   4   3  -5 323.506 117.487   4
  -4   3   5 374.499 62.5193   3
   4  -3  -5 259.409 100.124   2
   4   3  -4 17764.4 750.830   4
   4  -3  -4 17402.8 656.987   2
  -4   3   4 15190.8 344.628   3
  -4   3   4 14574.8 512.098   4
  -4   3   3 7318.53 255.697   3
   4  -3  -3 7651.64 417.238   2
   4   3  -3 7236.94 465.486   4
  -4   3   3 6698.34 324.624   4
  -4   3   2 1687.75 133.944   3
  -4   3   2 1557.69 144.518   4
   4  -3  -2 1511.28 179.445   2
  -4   3   1 22630.9 406.811   1
  -4   3   1 21757.7 494.128   4
   4  -3  -1 23026.6 654.281   2
  -4   3   0 894.230 119.564   3
  -4   3   0 799.487 110.750   1
  -4  -3   0 865.470 177.348   1
  -4   3   0 521.630 112.540   2
  -4   3   0 665.208 77.1957   4
   4  -3   0 759.238 118.672   2
  -4   3  -1 46.9857 24.9429   4
  -4  -3  -1 99.0761 80.0954   1
  -4   3  -1 113.824 59.4983   2
  -4   3  -1 19.6242 50.6975   1
   4  -3   1 111.233 58.6014   2
  -4   3  -1 125.292 54.4038   3
  -4   3  -2 3918.84 292.058   2
  -4   3  -2 3875.31 270.484   3
  -4   3  -2 2655.24 134.718   4
  -4  -3  -2 3852.97 357.339   1
   4  -3   2 4027.86 226.758   2
  -4   3  -3 158.088 29.1362   4
  -4   3  -3 218.003 69.7460   2
  -4  -3  -3 208.404 78.7077   1
  -4   3  -3 335.500 86.2328   3
  -4   3  -3 195.698 25.4650   4
   4   3   3 183.651 85.0930   3
   4  -3   3 422.077 70.7784   2
  -4   3  -4 2988.56 260.437   3
  -4  -3  -4 2993.66 301.475   1
   4   3   4 2385.89 228.194   3
   4  -3   4 3261.72 170.190   2
  -4   3  -4 2145.99 180.897   2
  -4   3  -5 71.9890 16.8377   4
  -4   3  -5 121.994 78.4348   3
   4   3   5 82.0603 51.4720   3
   4   3   6 559.263 106.969   3
  -4  -3  -6 597.362 140.514   1
  -4   3  -6 434.894 51.2324   4
  -4   3  -7 264.496 96.3103   3
   4   3   7 230.105 69.4163   3
  -4  -3  -7 293.347 114.368   1
  -4   3  -7 332.649 52.1315   4
  -4   3  -8 33.3753 36.9762   4
  -4   3  -8-84.5597 72.7708   3
   4   3   8 37.4958 49.1186   3
  -4  -3  -8-17.7590 67.0757   1
  -4   3  -9 14329.2 689.238   3
  -4  -3  -9 12496.9 641.255   1
  -4   3  -9 13457.8 403.773   4
  -4   3 -10 60.2001 46.5075   4
  -4  -3 -10 52.4083 85.5658   1
  -4   3 -10 191.207 107.104   3
  -4  -3 -11 1482.97 235.344   1
  -4   3 -11 1681.97 259.437   3
  -4   3 -11 1506.44 161.877   4
  -4  -3 -12 1000.90 210.817   1
  -4   3 -12 474.713 100.580   4
  -4   3 -12 668.398 180.656   3
  -4  -3 -12 662.738 152.732   3
  -4   3 -13 180.756 72.5478   4
  -4   3 -13 172.789 126.212   3
  -4  -3 -13 108.481 91.9960   3
  -4  -3 -13 71.5124 73.0245   1
  -4   3 -14 335.737 145.379   3
  -4  -3 -14 244.011 110.778   1
  -4  -3 -15 209.881 117.148   1
  -4   3 -15-74.8942 90.0080   3
  -4  -3 -16 344.953 151.691   1
  -4   3 -16 223.555 137.184   3
   4  -4 -14 264.280 116.499   2
   4   4 -14 492.663 200.422   4
   4   4 -13 349.784 154.768   4
   4  -4 -13 84.2812 95.9473   2
   4  -4 -12 134.375 87.1076   2
   4   4 -12 304.037 146.886   4
   4  -4 -11 341.974 155.583   2
   4   4 -11 482.790 204.982   4
   4  -4 -10 395.006 144.519   2
   4   4 -10 572.884 187.391   4
   4  -4  -9 86.9041 71.2140   2
   4   4  -9 93.7378 95.0461   4
   4  -4  -8 244.150 111.934   2
   4   4  -8 718.035 196.684   4
   4   4  -7 865.917 201.947   4
   4  -4  -7 216.548 92.4538   2
   4  -4  -6 200.709 94.9578   2
   4   4  -6 294.791 127.073   4
   4   4  -5 1708.10 276.207   4
   4  -4  -5 2032.44 262.663   2
   4  -4  -4 241.264 107.742   2
  -4   4   4 191.905 45.1668   3
   4   4  -4 435.579 163.743   4
  -4   4   3 224.381 56.6835   3
   4  -4  -3 163.275 86.5651   2
   4   4  -3 200.591 112.272   4
   4  -4  -2 2949.55 279.855   2
  -4   4   2 2629.96 189.961   3
  -4   4   1 2.41597 26.6517   3
   4  -4  -1 172.969 79.6610   2
  -4   4   0-22.8341 37.0371   3
   4  -4   0-6.41941 42.4691   2
  -4  -4   0 72.8022 71.1929   1
  -4   4  -1-32.5499 34.1735   3
  -4  -4  -1 12.7157 95.2446   1
   4  -4   1 74.1356 44.2325   2
   4  -4   2 2980.20 231.935   2
  -4   4  -2 3073.82 273.014   3
  -4  -4  -2 3275.15 378.293   1
  -4   4  -2 3028.21 213.685   4
  -4   4  -3 699.165 148.679   3
  -4   4  -3 654.822 96.4597   4
  -4  -4  -3 1053.47 207.588   1
   4  -4   3 1022.42 122.748   2
  -4  -4  -4 112.211 92.8348   1
  -4   4  -4 35.7352 37.3674   4
  -4   4  -4 71.1567 68.2452   3
  -4   4  -5 1355.26 207.797   3
  -4  -4  -5 1787.66 275.617   1
  -4  -4  -6 11622.3 690.143   1
  -4   4  -6 10416.8 579.567   3
  -4  -4  -7 128.887 99.1974   1
  -4   4  -7 256.557 106.929   3
  -4  -4  -8 89.5946 110.359   1
  -4   4  -8 147.327 83.5516   3
  -4   4  -9 1.00043 51.0572   3
  -4  -4  -9 281.088 121.097   1
  -4   4 -10 74.3742 103.612   3
  -4  -4 -10 5.85922 75.6282   1
  -4   4 -11 127.451 97.2704   3
  -4  -4 -11 188.457 128.637   1
  -4   4 -12 13.3552 77.6992   3
  -4  -4 -12 188.408 106.236   1
  -4   4 -13 487.852 209.774   3
  -4  -4 -13 323.256 156.710   1
  -4   4 -14 107.154 93.9263   3
  -4  -4 -14 184.083 127.384   1
   4  -5 -10 53.6186 72.9927   2
   4   5 -10-3.29845 108.067   4
   4  -5  -9-63.0469 85.3454   2
   4   5  -9-59.6629 124.999   4
   4  -5  -8 930.579 218.324   2
   4   5  -8 961.815 251.193   4
   4  -5  -7 460.706 155.740   2
   4   5  -7 197.504 145.302   4
   4  -5  -6 923.699 210.845   2
   4   5  -6 571.849 191.637   4
   4  -5  -5 1039.36 225.246   2
   4   5  -5 592.696 203.006   4
   4  -5  -4-73.7993 58.7584   2
   4   5  -4-24.9777 86.0375   4
   4  -5  -3-60.5044 70.3991   2
   4   5  -3 91.2730 90.9612   4
   4   5  -2 185.245 124.775   4
   4  -5  -2 78.8176 85.4342   2
   4  -5  -1 138.807 92.6381   2
  -4   5   0 89.9263 66.2810   3
   4  -5   0 56.2384 59.7178   2
  -4   5  -1 492.161 125.450   3
  -4  -5  -2 3847.99 488.540   1
  -4   5  -2 3185.60 303.755   3
  -4  -5  -3 835.572 212.071   1
  -4   5  -3 922.759 176.884   3
  -4   5  -4 320.789 118.809   3
  -4  -5  -4 400.591 171.349   1
  -4   5  -5 113.561 73.9128   3
  -4  -5  -5 336.680 162.284   1
  -4   5  -6 926.216 203.824   3
  -4  -5  -6 1152.29 245.940   1
  -4  -5  -7-50.8870 107.451   1
  -4   5  -7 112.351 98.6791   3
  -4   5  -8 186.963 120.613   3
  -4  -5  -8-94.0595 109.425   1
  -4   5  -9 112.681 98.0121   3
  -4  -5  -9 238.257 147.575   1
   5   0 -20 31.3812 117.620   4
   5   0 -20-44.6304 68.6887   3
   5   0 -20-80.4180 82.5526   2
   5   0 -19 136.332 91.6665   4
   5   0 -19 120.578 113.961   3
   5   0 -19 1.26277 86.7599   2
   5   0 -18 64.7273 107.341   4
   5   0 -18-34.5784 90.2359   3
   5   0 -18 92.6117 117.730   2
   5   0 -17 4852.08 473.315   2
   5   0 -17 4486.31 474.757   4
   5   0 -16 98.0508 116.735   4
   5   0 -16 124.556 87.6417   2
   5   0 -15 1891.10 279.701   2
   5   0 -15 2587.31 342.952   4
   5   0 -14 243.573 177.461   4
   5   0 -14 83.2923 95.9680   2
   5   0 -13 1359.27 230.322   4
   5   0 -13 1192.13 205.463   2
   5   0 -12 232.267 98.1869   4
   5   0 -12-63.3428 71.9361   2
   5   0 -11 1879.53 248.575   4
   5   0 -11 1938.24 258.729   2
   5   0 -10 37.6954 46.4219   4
   5   0 -10 74.7630 65.7835   2
   5   0  -9 2022.50 244.240   4
   5   0  -9 1859.54 233.259   2
   5   0  -8 30.4349 48.6120   4
   5   0  -8 68.2643 56.6596   2
   5   0  -7 3840.82 329.171   2
   5   0  -7 4039.45 322.081   4
   5   0  -6 104.532 75.4870   4
   5   0  -6-28.8006 64.1459   2
   5   0  -6-13.6705 45.1349   1
   5   0  -5 20468.6 649.248   1
   5   0  -5 21045.7 695.510   2
  -5   0   5 20458.4 672.365   4
   5   0  -5 20401.0 654.144   4
   5   0  -4-46.4844 60.5728   2
   5   0  -4 46.9550 50.3367   1
  -5   0   4-3.43725 28.5307   4
   5   0  -4 49.0655 54.5279   3
   5   0  -4 98.8980 57.6478   4
   5   0  -3 111733. 1313.74   1
  -5   0   3 107976. 1364.74   1
  -5   0   3 106160. 1346.96   4
   5   0  -3 111455. 1483.31   2
   5   0  -3 108802. 1371.88   4
   5   0  -2-1.04302 33.8538   1
  -5   0   2 2.33179 35.9079   4
  -5   0   2-3.60977 45.9042   3
  -5   0   2 37.0375 34.0152   1
   5   0  -2-36.0896 34.2189   4
   5   0  -1 24436.8 559.847   1
   5   0  -1 23714.6 605.391   4
  -5   0   1 24066.6 575.075   1
  -5   0   1 23370.1 610.618   3
   5   0   0 8.71052 26.0405   1
   5   0   0 10.9526 29.0028   3
  -5   0   0 9.71918 25.6896   3
  -5   0   0 28.2953 32.3294   1
   5   0   1 34778.9 670.800   3
  -5   0  -1 35280.0 620.537   1
  -5   0  -1 37000.7 694.651   3
   5   0   2 22.5476 28.9850   3
  -5   0  -2-26.1691 35.9896   3
  -5   0  -2-40.2211 32.7773   1
  -5   0  -3 28011.6 629.597   3
   5   0   3 27668.7 632.422   3
  -5   0  -3 28810.6 603.788   1
   5   0   4-0.25005 29.4581   3
  -5   0  -4 28.7330 23.0090   3
  -5   0  -4-7.03059 24.3197   1
  -5   0  -5 4293.66 251.992   1
   5   0   5 4063.01 260.007   3
  -5   0  -5 4290.66 260.377   3
  -5   0  -6 8.28202 41.4726   3
   5   0   6-5.08049 23.6315   2
  -5   0  -6-14.6980 42.9611   1
   5   0   7 66439.9 961.571   2
  -5   0  -7 68319.5 1100.08   3
  -5   0  -7 67438.7 1090.09   1
  -5   0  -8-55.7469 44.3905   3
   5   0   8 79.5295 55.2864   2
  -5   0  -8-1.69138 34.1576   1
  -5   0  -9 8495.22 420.226   3
  -5   0  -9 8633.10 432.170   1
   5   0   9 7790.94 356.880   2
  -5   0 -10 44.3708 38.5375   3
  -5   0 -10-27.2741 33.1644   1
  -5   0 -11 1345.47 185.740   3
  -5   0 -11 1299.65 192.581   1
  -5   0 -12-49.7004 37.0602   3
  -5   0 -12 91.1362 75.5715   1
  -5   0 -13 1320.34 206.482   1
  -5   0 -13 1169.98 187.394   3
  -5   0 -14-12.1007 44.0487   3
  -5   0 -14 141.747 84.3845   1
  -5   0 -15 139.541 99.9629   3
  -5   0 -15 40.0496 67.1725   1
  -5   0 -16-16.1765 71.1870   3
  -5   0 -16 100.952 79.6339   1
  -5   0 -17 855.575 176.279   3
  -5   0 -17 998.653 210.611   1
  -5   0 -18 85.1795 106.874   3
  -5   0 -18 93.4283 83.5164   1
  -5   0 -19 205.927 131.419   3
  -5   0 -19 149.308 85.1285   1
   5  -1 -19 273.571 146.343   4
   5   1 -19 340.291 162.210   4
   5   1 -19 623.587 213.143   3
   5   1 -19 441.769 157.858   2
   5  -1 -19 628.175 190.949   2
   5  -1 -18 2092.18 268.865   3
   5  -1 -18 1784.08 311.461   4
   5   1 -18 2640.94 367.613   2
   5   1 -18 2304.55 358.107   4
   5  -1 -18 2045.75 344.188   2
   5  -1 -17 1029.06 236.895   4
   5   1 -17 1319.96 234.373   2
   5  -1 -17 1499.69 218.642   3
   5   1 -17 2023.32 332.283   4
   5  -1 -17 1527.20 284.512   2
   5   1 -16 109.366 79.2124   4
   5  -1 -16 452.521 165.338   4
   5  -1 -16 312.947 117.662   3
   5  -1 -16 266.771 120.325   2
   5   1 -16 575.305 159.626   2
   5   1 -15 198.543 133.682   4
   5  -1 -15 410.177 142.480   4
   5   1 -15 329.313 117.605   2
   5  -1 -15 533.268 167.416   2
   5   1 -14 83.6985 117.164   4
   5  -1 -14 130.236 60.6547   2
   5   1 -14 63.6676 70.5863   2
   5  -1 -14 89.1478 99.5112   4
   5   1 -13 1349.29 239.595   4
   5  -1 -13 2039.68 270.161   4
   5  -1 -13 1565.00 257.483   2
   5   1 -13 1336.07 226.499   2
   5  -1 -12 709.722 173.244   2
   5   1 -12 1100.72 213.812   4
   5  -1 -12 968.815 190.890   4
   5   1 -12 935.414 182.769   2
   5  -1 -11 10379.8 572.851   4
   5   1 -11 10180.7 629.746   4
   5  -1 -11 9668.15 588.328   2
   5   1 -11 9941.30 552.228   2
   5  -1 -10 1005.96 179.655   2
   5   1 -10 1057.93 198.187   2
   5   1 -10 1440.32 225.922   4
   5  -1 -10 1175.80 195.009   4
   5  -1  -9 6721.87 414.775   4
   5   1  -9 6725.77 476.103   4
   5   1  -9 6614.88 442.225   2
   5  -1  -9 6388.99 438.809   2
   5  -1  -8 7404.83 378.959   3
   5   1  -8 7094.08 446.951   2
   5   1  -8 7099.26 467.574   4
   5  -1  -8 6629.08 397.108   4
   5  -1  -8 6658.21 444.246   2
   5   1  -7 19000.5 720.358   2
   5  -1  -7 19792.4 586.552   3
   5   1  -7 18896.9 756.343   4
   5  -1  -7 18241.8 629.491   4
   5  -1  -7 19270.9 750.811   2
   5   1  -6 74883.9 1412.79   4
   5  -1  -6 70635.5 1341.83   2
  -5   1   6 71944.5 1301.70   4
   5  -1  -6 74097.9 1239.18   4
   5  -1  -5 341.949 70.3149   3
   5  -1  -5 293.842 70.5386   1
  -5   1   5 523.432 125.227   4
   5  -1  -5 365.043 90.1829   4
   5  -1  -5 354.971 98.0709   2
   5   1  -5 354.941 108.146   4
   5  -1  -4 26616.6 653.824   4
   5  -1  -4 27133.9 582.703   3
   5   1  -4 26549.8 802.956   4
  -5   1   4 29691.5 861.044   2
  -5  -1   4 22572.1 703.420   4
   5  -1  -4 26220.7 519.138   1
   5  -1  -4 23761.1 747.874   2
  -5   1   4 27503.9 726.780   4
  -5   1   3 13800.3 463.036   4
   5  -1  -3 13017.1 314.488   1
  -5   1   3 13817.7 571.060   2
  -5   1   3 13702.2 430.572   3
   5   1  -3 11873.4 524.020   4
  -5  -1   3 11787.6 538.708   1
   5  -1  -3 12722.5 532.271   2
   5  -1  -3 13632.3 440.974   4
   5  -1  -3 14362.5 409.260   3
   5   1  -2 42.0706 47.6031   1
  -5   1   2 128.021 38.3903   1
   5  -1  -2 51.6347 46.8934   2
  -5   1   2 124.955 63.4200   2
  -5  -1   2 86.9859 41.8776   1
   5  -1  -2 172.906 54.2567   3
  -5   1   2 112.267 35.5001   3
   5  -1  -2 247.535 42.1686   1
   5   1  -2 1.51741 33.5834   3
   5  -1  -2 121.602 44.5421   4
   5   1  -2 79.2811 72.8518   4
  -5   1   2 173.348 54.5303   4
  -5   1   1 28284.9 453.935   1
   5   1  -1 26732.9 703.059   1
  -5   1   1 27695.9 537.981   4
   5  -1  -1 28849.9 589.460   3
  -5  -1   1 26494.1 730.828   1
  -5   1   1 28069.5 573.718   3
   5   1  -1 27282.8 759.719   3
   5  -1  -1 27963.2 692.581   2
   5  -1  -1 25952.0 482.363   4
   5  -1  -1 27484.1 400.593   1
  -5  -1   0 47541.3 946.131   1
  -5   1   0 46924.2 577.389   1
   5   1   0 50357.4 942.633   1
  -5   1   0 48008.2 741.019   3
   5   1   0 46062.3 948.737   3
   5  -1   0 50450.4 800.406   3
   5  -1   0 47631.6 868.353   2
   5  -1   0 48689.3 614.786   1
   5  -1   0 48513.4 607.101   4
   5  -1   1 23362.0 587.297   2
  -5  -1  -1 21316.6 605.897   1
   5  -1   1 20413.4 527.503   3
  -5   1  -1 21992.1 516.101   3
   5   1   1 22039.3 608.305   3
  -5  -1  -1 21868.2 638.497   3
   5   1   1 21815.5 599.430   1
   5  -1   1 21872.9 456.690   1
   5  -1   1 20946.6 359.462   4
  -5   1  -1 21306.3 409.569   1
  -5  -1  -2 1817.57 176.647   1
   5   1   2 1406.59 154.884   3
  -5  -1  -2 1834.85 185.016   3
  -5   1  -2 1892.81 160.246   3
   5  -1   2 1724.49 98.1285   4
  -5   1  -2 1732.58 123.668   1
   5   1   2 1585.65 160.004   1
  -5  -1  -3 15823.8 501.593   1
   5   1   3 15180.7 480.085   3
  -5  -1  -3 15228.9 516.399   3
  -5   1  -3 14594.0 464.671   3
  -5   1  -3 14263.6 393.889   1
   5   1   3 14073.3 477.588   1
  -5  -1  -4 21208.7 608.303   1
  -5   1  -4 22626.4 535.398   1
  -5   1  -4 22341.8 589.861   3
  -5  -1  -4 23411.9 627.988   3
   5   1   4 23063.5 590.246   3
   5  -1   4 22432.9 382.380   4
  -5   1  -5 14543.4 496.867   3
   5   1   5 15754.6 493.937   3
  -5  -1  -5 15068.3 508.018   3
  -5   1  -5 14567.1 459.463   1
   5  -1   5 15089.7 359.289   4
  -5  -1  -5 15606.8 528.777   1
  -5  -1  -6 4441.07 296.260   1
  -5   1  -6 4325.91 286.800   3
  -5  -1  -6 4319.48 282.657   3
  -5   1  -6 3570.21 246.756   1
   5   1   6 4190.03 261.567   3
   5  -1   6 4144.25 219.235   4
   5  -1   7 2268.42 143.027   2
  -5  -1  -7 2378.00 222.183   1
  -5  -1  -7 1750.17 181.975   3
  -5   1  -7 2286.74 216.757   1
   5  -1   7 2077.44 174.323   4
  -5   1  -7 1706.15 185.321   3
  -5   1  -8 5149.68 340.028   3
  -5  -1  -8 5155.22 313.738   3
  -5   1  -8 5212.02 345.635   1
  -5  -1  -8 5993.70 358.387   1
   5  -1   8 4904.58 296.085   4
   5  -1   8 5016.86 217.139   2
  -5  -1  -9 2881.00 240.548   3
   5  -1   9 3352.44 186.510   2
  -5   1  -9 3681.96 303.602   3
   5  -1   9 3679.00 284.326   4
  -5  -1  -9 3842.89 295.435   1
  -5   1  -9 3910.19 307.479   1
   5  -1  10 149.282 47.5293   2
  -5   1 -10 138.177 70.0369   3
  -5   1 -10 118.469 75.9514   1
  -5  -1 -10 120.869 64.4068   3
  -5  -1 -10 79.3039 64.5564   1
  -5  -1 -11 5868.03 365.294   3
  -5   1 -11 6648.45 437.464   1
  -5   1 -11 6308.61 421.189   3
   5  -1  11 5523.44 278.541   2
  -5  -1 -11 6405.50 413.349   1
  -5   1 -12 1590.70 227.294   1
  -5   1 -12 1578.45 217.015   3
  -5  -1 -12 1596.48 199.005   3
  -5  -1 -12 1792.21 229.731   1
   5  -1  12 1107.28 134.888   2
   5  -1  13 21.0813 46.0980   2
  -5   1 -13-21.9052 62.0946   3
  -5  -1 -13 91.9229 68.6704   3
  -5   1 -13 29.9168 82.1816   1
  -5  -1 -13 64.2158 64.9020   1
  -5   1 -14 1985.15 265.292   3
  -5   1 -14 1619.81 249.251   1
  -5  -1 -14 2107.54 237.689   3
  -5  -1 -14 2010.10 261.191   1
  -5  -1 -15 514.970 141.670   1
  -5   1 -15 965.618 188.152   3
  -5  -1 -15 732.793 153.804   3
  -5   1 -15 1095.26 225.418   1
  -5   1 -16 399.961 142.152   3
  -5  -1 -16-15.4490 65.3251   3
  -5   1 -16 440.223 157.121   1
  -5  -1 -16 340.766 117.075   1
  -5  -1 -17 4182.89 418.803   1
  -5  -1 -17 3903.76 361.384   3
  -5   1 -17 5127.83 494.116   1
  -5   1 -17 4007.46 423.869   3
  -5  -1 -18 36.6346 74.3364   1
  -5   1 -18 68.9986 82.6075   3
  -5  -1 -18 300.699 128.942   3
  -5   1 -18 106.105 76.3715   1
  -5   1 -19 542.754 182.274   3
  -5  -1 -19 319.519 135.652   3
  -5   1 -19 494.510 186.239   1
  -5  -1 -19 464.717 149.380   1
   5   2 -18 42.7793 124.958   4
   5  -2 -18 74.0877 91.4230   2
   5  -2 -18 26.1218 71.8846   1
   5  -2 -18 175.127 130.771   4
   5   2 -17 48.7737 102.989   4
   5  -2 -17-27.2213 83.3370   4
   5   2 -17 91.8300 110.454   2
   5  -2 -17 10.0911 78.2391   2
   5  -2 -17-63.2441 74.1196   1
   5  -2 -16 79.6532 81.2827   4
   5   2 -16-6.03556 56.6923   2
   5  -2 -16 94.1256 116.817   2
   5  -2 -16 108.913 69.5827   1
   5   2 -16 53.9511 102.758   4
   5  -2 -15 1371.22 201.287   1
   5   2 -15 1992.05 284.131   2
   5   2 -15 1810.10 332.163   4
   5  -2 -15 1496.57 245.729   4
   5  -2 -15 1422.77 268.094   2
   5  -2 -14 146.600 103.479   4
   5   2 -14 53.1517 88.4632   4
   5  -2 -14 111.514 51.0386   3
   5  -2 -14-10.8394 89.0149   2
   5  -2 -14 328.779 104.547   1
   5   2 -14 356.145 130.496   2
   5   2 -13 118.905 95.9322   4
   5  -2 -13 86.1633 101.046   4
   5   2 -13 6.26411 62.6192   2
   5  -2 -13 50.6996 45.6180   3
   5  -2 -13-83.2484 104.999   2
   5  -2 -13-35.4797 45.6310   1
   5   2 -12 44.6933 82.1513   4
   5  -2 -12 80.3173 73.9495   4
   5   2 -12 48.9487 51.8104   2
   5  -2 -12 111.546 43.0170   3
   5  -2 -12 179.123 84.5093   2
   5  -2 -12-23.6591 38.1878   1
   5  -2 -12 108.669 66.5673   3
   5  -2 -11 1573.08 155.500   3
   5  -2 -11 1660.07 239.337   4
   5  -2 -11 1237.30 151.450   1
   5  -2 -11 1507.63 251.540   2
   5   2 -11 1471.56 249.957   4
   5   2 -11 1574.86 222.772   2
   5  -2 -10 2872.03 177.515   3
   5  -2 -10 2832.84 287.074   4
   5  -2 -10 2628.99 201.835   1
   5   2 -10 1966.87 246.310   2
   5   2 -10 2627.19 322.835   4
   5  -2 -10 2622.77 319.612   2
   5   2  -9 103.555 78.5592   2
   5  -2  -9-11.3345 52.8760   4
   5  -2  -9 25.8601 67.9171   2
   5  -2  -9 84.6148 44.4632   1
   5  -2  -9 217.120 49.0706   3
   5   2  -9 81.4557 86.9979   4
   5  -2  -8 368.650 99.7539   4
   5   2  -8 215.561 99.3704   4
   5  -2  -8 457.465 76.2121   1
   5  -2  -8 462.228 131.720   2
   5  -2  -8 377.493 58.7532   3
   5  -2  -7 710.570 160.254   2
   5  -2  -7 677.610 124.216   4
   5  -2  -7 677.432 75.9604   3
   5  -2  -7 665.930 69.9635   1
   5   2  -7 608.826 153.683   4
   5  -2  -6 1301.31 105.165   3
   5  -2  -6 941.978 168.885   2
   5   2  -6 1004.38 194.520   4
   5  -2  -6 959.259 67.2845   1
   5  -2  -6 1037.18 147.324   4
   5  -2  -5 20135.2 423.454   3
  -5   2   5 18757.1 618.288   4
   5  -2  -5 19654.3 572.449   4
   5  -2  -5 18722.7 705.117   2
   5   2  -5 18894.1 759.818   4
  -5   2   4 17431.3 447.277   3
   5  -2  -4 17650.2 417.690   3
   5   2  -4 17171.6 711.685   4
  -5   2   4 17359.3 567.442   4
   5  -2  -4 17815.7 503.624   4
   5  -2  -4 17346.3 652.677   2
   5  -2  -3 11292.2 513.995   2
   5  -2  -3 12374.1 374.684   3
  -5   2   3 11318.4 342.021   3
   5  -2  -3 11896.2 376.911   4
  -5   2   3 11268.6 418.268   4
   5   2  -3 11942.9 576.940   4
  -5  -2   3 11785.9 626.170   1
  -5   2   2 145.755 53.3536   4
   5  -2  -2 62.7983 36.5204   4
  -5   2   2 73.8007 58.1057   2
   5  -2  -2 88.6559 43.8387   2
   5  -2  -2 131.999 48.6662   3
  -5   2   2 69.9798 35.1300   3
  -5  -2   2 128.249 80.8749   1
  -5   2   1-0.19214 52.3065   2
   5  -2  -1-41.5437 35.3594   2
  -5  -2   1 81.5386 63.6882   1
   5  -2  -1 85.4330 55.1370   3
  -5   2   1 101.402 45.5089   3
  -5   2   1 64.4057 32.2887   4
   5  -2   0 11018.7 431.178   3
  -5   2   0 10837.0 370.569   3
  -5  -2   0 12134.9 576.884   1
   5  -2   0 11638.9 441.548   2
  -5   2   0 11108.8 225.941   1
  -5   2   0 11576.9 511.784   2
   5  -2   1 2710.73 226.561   3
  -5   2  -1 2759.38 198.433   3
  -5  -2  -1 2545.57 261.146   1
   5   2   1 2576.67 266.227   3
  -5   2  -1 2485.24 134.803   1
   5  -2   1 2600.78 200.476   2
  -5  -2  -2 22838.1 739.923   1
  -5   2  -2 20846.9 570.013   3
   5   2   2 21621.1 679.155   3
   5  -2   2 22651.0 549.943   2
  -5   2  -2 19814.7 449.667   1
  -5  -2  -3 1148.78 166.222   1
  -5   2  -3 1325.57 153.698   3
   5   2   3 1152.07 148.129   3
   5  -2   3 1490.87 132.120   2
  -5  -2  -4 18213.1 654.658   1
   5   2   4 18417.0 579.477   3
  -5   2  -4 18912.9 600.294   3
   5  -2   4 18447.6 409.806   2
  -5  -2  -5 12619.2 548.792   1
  -5  -2  -5 13472.0 566.229   3
  -5   2  -5 12334.1 503.154   3
   5   2   5 11829.5 441.311   3
  -5  -2  -6 1156.15 166.613   1
  -5   2  -6 1760.61 205.197   3
   5   2   6 1377.59 154.011   3
  -5  -2  -6 1713.54 208.098   3
   5  -2   6 781.363 72.3139   4
  -5  -2  -7 280.194 101.189   1
  -5   2  -7 401.071 107.943   3
  -5  -2  -7 344.147 97.6709   3
   5  -2   7 247.414 55.4306   4
  -5  -2  -8 264.330 84.3635   1
  -5   2  -8 267.617 104.939   3
  -5  -2  -8 277.260 98.2273   3
   5  -2   8 227.245 67.5557   4
   5  -2   9 2564.46 218.170   4
  -5  -2  -9 2520.98 250.165   3
  -5   2  -9 2514.96 279.112   3
  -5  -2  -9 2279.77 249.076   1
  -5   2 -10 1853.64 245.045   3
  -5  -2 -10 1543.62 206.791   3
   5  -2  10 1215.60 172.795   4
  -5  -2 -10 1521.97 213.469   1
  -5   2 -11 8014.74 514.927   3
  -5  -2 -11 8131.30 453.718   3
  -5  -2 -11 8707.26 520.850   1
  -5  -2 -12 95.0389 63.8702   1
  -5   2 -12-45.2409 55.5390   3
  -5  -2 -12 20.9911 72.4872   3
  -5   2 -13 5048.64 436.850   3
  -5  -2 -13 4491.26 354.550   3
  -5  -2 -13 4963.75 425.555   1
  -5  -2 -14 75.1563 74.4372   1
  -5   2 -14 256.784 112.029   3
  -5  -2 -14 276.575 103.007   3
  -5  -2 -15 73.8288 75.2510   1
  -5  -2 -15 77.7499 78.0451   3
  -5  -2 -16 176.213 114.970   1
  -5   2 -16 178.441 120.256   3
  -5   2 -16 266.921 128.537   1
  -5  -2 -16 133.407 89.4465   3
  -5  -2 -17-32.2766 62.6214   1
  -5   2 -17 100.652 127.386   3
  -5   2 -17-73.0420 84.4681   1
  -5  -2 -17 81.0945 80.0422   3
  -5  -2 -18 54.2444 84.9354   1
  -5   2 -18 171.405 130.998   3
  -5   2 -18 66.1864 77.3963   1
   5   3 -17 35.6610 86.6286   4
   5  -3 -17 186.600 148.663   2
   5   3 -16 262.692 151.322   4
   5  -3 -16 77.4839 84.9503   2
   5   3 -15 151.773 125.642   4
   5  -3 -15 114.059 100.528   2
   5   3 -14 2153.05 371.064   4
   5  -3 -14 1394.60 178.188   1
   5  -3 -14 1649.79 296.549   2
   5   3 -14 1536.58 244.703   2
   5   3 -13-77.5993 80.3634   4
   5   3 -13 106.574 101.769   2
   5  -3 -13-101.753 63.5712   2
   5  -3 -13 35.7106 58.8864   1
   5   3 -12 968.170 221.118   4
   5   3 -12 681.656 168.096   2
   5  -3 -12 732.197 198.356   2
   5  -3 -12 739.794 125.053   1
   5  -3 -11 629.252 106.907   1
   5   3 -11 627.154 161.784   2
   5  -3 -11 664.607 181.154   2
   5   3 -11 889.361 222.852   4
   5   3 -10 369.808 137.245   2
   5  -3 -10 384.972 74.4096   1
   5   3 -10 587.240 177.697   4
   5  -3 -10 642.028 162.408   2
   5  -3  -9 194.217 101.750   2
   5  -3  -9 79.9649 32.8356   1
   5   3  -9 180.376 127.591   4
   5  -3  -8-4.84450 59.8468   2
   5   3  -8-42.5764 65.5447   4
   5  -3  -7 727.174 168.709   2
   5   3  -7 569.931 155.624   4
   5  -3  -6 130.146 74.2297   2
   5   3  -6 432.226 144.918   4
   5  -3  -5-15.2659 42.8368   2
  -5   3   5-21.4427 21.1434   3
   5   3  -5 68.8720 96.0176   4
   5  -3  -4 1930.73 234.618   2
  -5   3   4 1659.44 129.361   3
   5   3  -4 1820.81 260.134   4
  -5   3   4 1407.14 164.480   4
   5  -3  -3 1118.12 171.427   2
  -5   3   3 822.035 119.409   4
  -5   3   3 786.699 100.670   3
   5   3  -3 766.806 163.748   4
  -5   3   2 2915.98 202.570   4
  -5   3   2 3463.68 205.489   3
   5  -3  -2 3659.60 290.575   2
  -5  -3   1 783.293 186.111   1
   5  -3  -1 766.003 128.524   2
  -5   3   1 786.953 105.115   3
  -5   3   1 532.377 75.9604   4
  -5   3   0 1501.01 150.740   3
  -5   3   0 1672.57 145.063   1
  -5  -3   0 1998.22 269.345   1
  -5   3   0 1591.53 105.445   1
  -5   3   0 1195.24 100.375   4
   5  -3   0 1987.88 196.213   2
  -5   3  -1 3855.61 258.390   3
   5  -3   1 4252.56 261.456   2
  -5  -3  -1 4409.52 389.079   1
  -5   3  -1 3821.46 311.072   2
  -5   3  -2 2454.82 217.230   3
  -5  -3  -2 2326.33 282.478   1
  -5   3  -2 2150.31 224.277   2
   5  -3   2 2844.51 200.321   2
   5  -3   3 573.518 82.6746   2
  -5   3  -3 443.880 104.658   2
  -5   3  -3 744.346 130.411   3
  -5  -3  -3 613.985 152.982   1
  -5  -3  -4 60.0611 59.8995   1
  -5   3  -4 135.915 65.8982   3
   5  -3   4 221.724 47.4173   2
  -5   3  -5 120.961 73.2976   3
   5  -3   5 86.1127 25.4199   2
  -5  -3  -5 68.2222 76.0871   1
  -5   3  -6 93.9776 65.1689   3
  -5  -3  -6 63.9035 88.4435   1
  -5  -3  -7 2450.86 297.478   1
  -5   3  -7 3007.89 300.623   3
  -5   3  -8 691.004 166.834   3
  -5  -3  -8 642.598 154.256   1
  -5  -3  -9 3231.26 343.680   1
  -5   3  -9 3207.98 335.862   3
  -5  -3 -10 14202.3 714.537   1
  -5   3 -10 13315.7 695.894   3
  -5  -3 -11 42.5818 79.4557   1
  -5   3 -11 251.475 126.342   3
  -5  -3 -11 48.5035 94.5695   3
  -5  -3 -12-22.4591 50.0709   1
  -5   3 -12-10.0781 85.7139   3
  -5  -3 -12 64.5445 92.3737   3
  -5  -3 -13 398.162 144.835   1
  -5  -3 -13 306.876 121.726   3
  -5  -3 -14 42.6964 67.6132   1
  -5   3 -14 50.1632 62.8826   3
  -5  -3 -15 9.17086 55.2183   1
  -5   3 -15 105.191 116.909   3
  -5  -3 -16 260.066 151.748   1
  -5   3 -16 285.788 137.829   3
   5   4 -14 33.5593 88.6458   4
   5  -4 -14-79.7704 103.860   2
   5   4 -13 485.818 183.278   4
   5  -4 -13 421.065 170.882   2
   5   4 -12 2.41785 75.6631   4
   5  -4 -12 22.4173 74.4534   2
   5  -4 -11 156.493 83.9913   2
   5   4 -11-75.8375 126.386   4
   5  -4 -10 224.087 107.657   2
   5   4 -10 477.479 170.406   4
   5  -4  -9 21.4335 71.9660   2
   5   4  -9 142.384 101.755   4
   5  -4  -8 1314.63 238.729   2
   5   4  -8 1356.93 266.400   4
   5   4  -7 623.108 253.170   4
   5  -4  -7 89.8323 65.6230   2
   5  -4  -6-8.68090 55.7765   2
   5   4  -6 149.463 117.557   4
   5   4  -5 5608.23 515.735   4
   5  -4  -5 5764.58 444.935   2
  -5   4   4 740.072 92.7218   3
   5   4  -4 1242.78 248.384   4
   5  -4  -4 1429.96 213.826   2
  -5   4   3 1163.89 125.987   3
   5   4  -3 893.587 210.768   4
  -5   4   2 493.329 92.4530   3
   5  -4  -2 500.504 125.240   2
  -5   4   1 585.432 103.682   3
   5  -4  -1 1207.59 174.863   2
  -5  -4   1 1010.87 255.376   1
  -5  -4   0 111.210 114.822   1
  -5   4   0 103.889 61.0465   3
   5  -4   0 43.6346 48.7088   2
  -5   4  -1 14.8690 40.5440   3
   5  -4   1 0.67872 40.7755   2
  -5   4  -1-40.6553 30.8312   4
  -5  -4  -1-11.9028 78.1916   1
  -5  -4  -2 42.6689 87.8601   1
  -5   4  -2-13.7217 40.5978   3
   5  -4   2 27.7416 34.0150   2
   5  -4   3 2000.63 179.223   2
  -5   4  -3 1814.48 221.575   3
  -5  -4  -3 2295.20 313.732   1
  -5   4  -4 1130.91 181.982   3
  -5  -4  -4 1235.87 251.581   1
  -5   4  -5 175.197 81.5495   3
  -5  -4  -5 205.305 102.712   1
  -5   4  -6 2555.91 290.835   3
  -5  -4  -6 2207.98 324.725   1
  -5   4  -7 1814.58 250.907   3
  -5  -4  -7 1428.77 271.028   1
  -5  -4  -8 203.827 119.871   1
  -5   4  -8 18.5198 48.3977   3
  -5   4  -9 407.835 125.423   3
  -5  -4  -9 683.344 189.556   1
  -5  -4 -10-45.8041 86.9390   1
  -5   4 -10 171.840 108.958   3
  -5   4 -11 967.873 224.127   3
  -5  -4 -11 808.015 206.305   1
  -5   4 -12-43.2824 94.5879   3
  -5  -4 -12 191.007 150.757   1
  -5   4 -13 306.419 149.138   3
  -5  -4 -13 446.497 180.190   1
   5  -5  -9 84.0189 113.977   2
   5   5  -9 344.894 193.745   4
   5  -5  -8 145.671 118.624   2
   5   5  -8 104.499 145.121   4
   5  -5  -7 128.462 115.156   2
   5   5  -7 327.013 181.231   4
   5   5  -6 329.269 167.030   4
   5  -5  -6 140.750 90.5933   2
   5  -5  -5 154.582 89.1157   2
   5   5  -5 201.561 138.058   4
   5  -5  -4 466.060 143.750   2
   5   5  -4 741.537 233.865   4
   5  -5  -3 118.813 66.4034   2
   5   5  -3 280.604 136.797   4
   5   5  -2 169.537 109.606   4
   5  -5  -2 38.9890 60.4647   2
   5  -5  -1 62.0237 67.4349   2
  -5   5   0 111.014 65.1588   3
   5  -5   0 42.1495 52.9635   2
  -5   5  -1 49.2854 76.2845   3
   5  -5   1-8.39588 38.5851   2
  -5  -5  -2 30.5575 103.665   1
  -5   5  -2 35.0631 48.0177   3
  -5   5  -3 989.157 182.993   3
  -5  -5  -3 1266.09 279.064   1
  -5   5  -4 49.0548 61.2893   3
  -5  -5  -4-12.5161 84.8477   1
  -5  -5  -5 88.2157 112.666   1
  -5   5  -5 154.881 88.9764   3
  -5  -5  -6 173.627 122.122   1
  -5   5  -6 138.263 57.7036   3
  -5   5  -7-45.0295 89.4449   3
  -5  -5  -7 321.011 156.042   1
  -5   5  -8-13.3598 67.4334   3
  -5  -5  -8-22.2747 95.7063   1
  -5   5  -9 330.810 140.728   3
  -5  -5  -9 234.517 133.334   1
   6   0 -19 2.48289 93.6935   3
   6   0 -19 41.9749 91.7596   2
   6   0 -19 20.1166 103.114   4
   6   0 -18 111.157 101.015   4
   6   0 -18 223.009 143.047   2
   6   0 -17-92.5937 107.405   4
   6   0 -17-36.5211 85.7688   2
   6   0 -16 15019.8 824.118   2
   6   0 -16 14074.2 818.554   4
   6   0 -15-19.9058 69.8576   2
   6   0 -15-6.75111 86.7125   4
   6   0 -14 10936.6 660.616   2
   6   0 -14 10824.2 672.607   4
   6   0 -13 130.271 128.640   4
   6   0 -13 52.3004 78.9669   2
   6   0 -12 16951.8 799.281   4
   6   0 -12 20840.7 901.009   2
   6   0 -11-131.485 93.5535   4
   6   0 -11 28.9575 58.1694   2
   6   0 -10-12.4623 60.0000   4
   6   0 -10 65.8912 57.4954   2
   6   0  -9-25.4283 52.0482   4
   6   0  -9 26.1949 56.4523   2
   6   0  -8 28214.4 946.286   2
   6   0  -8 28981.5 928.597   4
   6   0  -7 6.88633 46.9218   4
   6   0  -7 1.18440 72.4228   2
   6   0  -7 47.0302 38.1358   1
   6   0  -6 19726.6 691.264   4
   6   0  -6 20019.8 684.064   1
   6   0  -6 20354.1 743.471   2
   6   0  -5-2.36099 63.2636   1
   6   0  -5-28.2806 37.6656   2
   6   0  -5 11.4649 47.5610   3
   6   0  -5-8.67580 57.6835   4
   6   0  -4 49.2587 63.9305   2
   6   0  -4 84.7464 57.6924   1
   6   0  -4 150.647 77.6109   3
  -6   0   4-3.83208 39.2328   4
   6   0  -4-16.2755 37.6891   4
  -6   0   3-16.4683 41.8650   4
   6   0  -3-38.0629 45.6885   1
  -6   0   3-27.0015 43.6028   1
   6   0  -3 51.8234 51.8443   3
   6   0  -3-20.7498 49.2032   4
   6   0  -2 20036.5 616.123   4
  -6   0   2 18914.5 564.700   1
  -6   0   2 19619.2 614.479   3
   6   0  -1 57.9369 36.1879   1
  -6   0   1 0.67988 24.3490   1
  -6   0   1 17.0136 36.3929   3
   6   0  -1 14.2482 36.9857   4
  -6   0   0 3470.77 220.496   1
   6   0   0 3663.33 248.678   3
   6   0   0 3399.85 241.708   4
  -6   0   0 2986.38 232.541   3
   6   0   0 2882.33 201.725   1
   6   0   1-10.4524 24.6720   1
  -6   0  -1 10.4374 27.5295   1
   6   0   1 50.2972 36.7290   3
  -6   0  -1-22.5270 29.8117   3
  -6   0  -2 3543.68 224.964   1
   6   0   2 3467.26 244.627   3
  -6   0  -2 3420.90 242.237   3
   6   0   2 3417.88 227.072   1
  -6   0  -3-8.95378 21.9754   1
   6   0   3-19.4201 36.6149   3
  -6   0  -3 6.75813 32.7214   3
   6   0   3-14.2888 23.6987   1
  -6   0  -4 1826.64 182.706   3
  -6   0  -4 1356.25 145.849   1
  -6   0  -5-38.5900 40.8020   1
  -6   0  -5-12.0175 37.5266   3
  -6   0  -6 1336.30 161.079   3
  -6   0  -6 1669.36 178.390   1
  -6   0  -7 43.7736 49.7725   3
   6   0   7 29.9911 42.2693   2
  -6   0  -7-70.7220 60.3324   1
  -6   0  -8 26591.2 752.683   1
  -6   0  -8 25082.5 725.289   3
  -6   0  -9-35.1316 45.3400   3
  -6   0  -9-60.5505 63.5884   1
  -6   0 -10 6307.02 390.995   3
  -6   0 -10 6650.66 407.547   1
  -6   0 -11 59.5711 46.0902   1
  -6   0 -11-36.3556 42.2607   3
  -6   0 -12 3892.89 334.856   3
  -6   0 -12 3440.27 321.726   1
  -6   0 -13 45.0303 63.6964   3
  -6   0 -13 85.3391 77.8808   1
  -6   0 -14 554.562 145.510   3
  -6   0 -14 712.874 164.653   1
  -6   0 -15 293.566 126.748   1
  -6   0 -15 98.9589 77.3933   3
  -6   0 -16 10.5489 65.2983   3
  -6   0 -16-25.0446 64.4479   1
  -6   0 -17 29.7664 69.3408   3
  -6   0 -17-97.3322 90.3870   1
  -6   0 -18 1384.39 247.080   3
  -6   0 -18 1160.20 230.245   1
   6   1 -19 1447.97 284.065   4
   6   1 -19 1153.90 249.460   2
   6  -1 -19 1932.89 348.203   2
   6   1 -18 831.166 232.632   4
   6  -1 -18 976.445 238.626   4
   6   1 -18 964.536 227.320   2
   6  -1 -18 675.159 154.329   3
   6  -1 -18 1267.61 282.415   2
   6  -1 -17 1969.59 253.033   3
   6  -1 -17 1805.37 310.248   2
   6   1 -17 1958.50 317.169   4
   6  -1 -17 1919.04 319.113   4
   6   1 -17 1779.28 289.241   2
   6   1 -16-37.1722 75.6397   4
   6  -1 -16 133.174 87.3217   4
   6   1 -16-50.9482 63.1640   2
   6  -1 -16 213.894 132.271   2
   6   1 -15-52.5028 72.0903   4
   6  -1 -15-58.5912 70.9531   4
   6   1 -15 48.8629 82.6000   2
   6  -1 -15 51.4187 60.9973   2
   6   1 -14 2782.70 327.229   2
   6  -1 -14 3250.61 350.328   4
   6   1 -14 3084.63 411.655   4
   6  -1 -14 2732.57 362.417   2
   6  -1 -13 8219.47 574.639   4
   6   1 -13 8239.64 616.016   4
   6   1 -13 7190.26 516.482   2
   6  -1 -13 7793.40 565.991   2
   6   1 -12 28560.5 1080.70   4
   6   1 -12 29188.7 1005.53   2
   6  -1 -12 28006.2 987.731   4
   6  -1 -12 27735.0 1046.66   2
   6   1 -11 9476.56 577.283   2
   6   1 -11 8991.11 608.257   4
   6  -1 -11 8290.78 511.569   4
   6  -1 -11 8734.20 578.858   2
   6  -1 -10 192.187 77.9827   4
   6   1 -10 60.8581 82.2128   2
   6  -1 -10 230.863 111.397   2
   6   1 -10 81.0300 80.9620   4
   6  -1 -10 157.008 101.216   3
   6  -1  -9 1961.48 223.973   3
   6   1  -9 2182.64 275.311   2
   6   1  -9 1841.04 261.558   4
   6  -1  -9 1680.77 217.378   4
   6  -1  -9 1802.99 255.150   2
   6  -1  -8 104.150 76.5398   4
   6   1  -8-30.7691 39.2686   2
   6  -1  -8 41.3581 91.3052   2
   6   1  -8-3.28660 57.8650   4
   6  -1  -8 117.755 69.3722   3
   6   1  -7 2306.12 275.161   2
   6  -1  -7 2642.34 224.898   3
   6  -1  -7 2438.63 221.069   1
   6  -1  -7 2012.68 246.209   2
   6   1  -7 2736.14 294.173   4
   6  -1  -7 2077.42 229.877   4
   6  -1  -6 19519.9 584.589   3
   6  -1  -6 18158.0 548.575   1
   6   1  -6 17637.0 735.268   4
   6  -1  -6 17245.4 612.614   4
  -6   1   5 29307.9 824.363   4
   6  -1  -5 30958.5 661.532   1
   6  -1  -5 30798.5 678.917   3
   6   1  -5 29651.4 918.817   4
   6  -1  -5 26828.4 858.399   2
   6  -1  -5 28417.7 770.309   4
   6  -1  -4 4194.70 219.908   1
   6   1  -4 3522.70 313.651   4
   6  -1  -4 5182.35 281.379   3
  -6   1   4 3845.64 257.595   3
  -6  -1   4 3937.19 346.421   1
  -6   1   4 4635.98 313.363   4
   6  -1  -4 4430.45 339.387   2
   6  -1  -4 4498.77 279.329   4
   6  -1  -3 3239.94 172.246   1
   6  -1  -3 3151.43 226.242   4
   6  -1  -3 3377.58 223.514   3
  -6   1   3 3533.45 243.288   3
  -6  -1   3 3533.63 313.949   1
   6   1  -3 3231.32 290.097   4
   6  -1  -3 3327.61 288.640   2
  -6   1   3 3623.31 234.488   1
  -6   1   3 3000.93 248.849   4
   6  -1  -2 58163.8 862.458   4
   6  -1  -2 62965.2 944.050   3
  -6   1   2 62593.7 856.377   1
  -6   1   2 61500.4 966.176   4
  -6   1   2 61628.5 960.781   3
   6   1  -2 62331.8 1221.92   4
  -6  -1   2 60468.9 1193.73   1
   6  -1  -2 57399.1 1107.51   2
   6  -1  -2 59881.3 693.292   1
  -6   1   1 307.336 70.0008   4
   6  -1  -1 304.907 95.1253   2
  -6   1   1 379.006 78.3814   3
   6  -1  -1 272.339 64.0515   3
  -6  -1   1 243.712 76.0247   1
   6   1  -1 351.333 96.7442   3
   6  -1  -1 299.353 51.7945   1
  -6   1   1 288.560 57.2715   1
   6  -1  -1 208.875 52.1364   4
  -6   1   0 842.229 86.7969   1
  -6  -1   0 761.376 124.698   1
   6  -1   0 614.259 113.697   2
   6  -1   0 756.454 116.278   3
  -6   1   0 913.520 121.967   3
   6   1   0 560.443 118.258   3
   6  -1   0 634.840 79.3473   4
   6  -1   0 882.324 94.6764   1
   6  -1   1 20072.7 415.142   4
  -6  -1  -1 20096.5 625.963   1
   6  -1   1 20695.9 576.575   3
  -6   1  -1 20794.5 552.537   3
   6   1   1 19853.3 618.698   3
   6  -1   1 20060.1 591.597   2
   6  -1   1 21943.2 503.025   1
  -6  -1  -1 20017.2 658.636   3
  -6   1  -1 20571.3 444.813   1
   6  -1   2 5354.73 207.211   4
   6  -1   2 5014.91 263.121   1
  -6   1  -2 5370.63 285.774   3
   6   1   2 4782.63 308.212   3
  -6  -1  -2 5123.62 340.112   3
  -6   1  -2 5601.17 244.745   1
  -6  -1  -2 5301.97 319.801   1
  -6  -1  -3 1546.85 171.816   1
  -6   1  -3 1481.11 157.026   3
  -6  -1  -3 1549.28 184.232   3
  -6   1  -3 1519.89 136.029   1
  -6  -1  -4 42113.4 901.647   1
  -6   1  -4 43074.1 871.257   3
  -6  -1  -4 42744.1 941.026   3
  -6   1  -4 41323.7 739.962   1
  -6   1  -5 1504.28 169.733   3
  -6  -1  -5 1808.61 200.616   1
  -6   1  -5 1449.08 152.077   1
  -6  -1  -5 1542.08 178.620   3
   6  -1   5 1408.49 113.083   4
  -6   1  -6 16982.9 594.559   3
  -6  -1  -6 16879.4 594.699   3
  -6   1  -6 17206.4 538.918   1
   6  -1   6 16648.7 443.604   4
  -6  -1  -6 15959.0 578.560   1
   6  -1   7 361.291 68.0893   2
  -6  -1  -7 190.041 69.2418   1
   6  -1   7 214.696 59.9587   4
  -6   1  -7 277.576 85.1618   3
  -6   1  -7 346.244 86.5523   1
   6  -1   8 1915.56 148.386   2
  -6   1  -8 1985.19 214.888   3
  -6  -1  -8 1965.81 215.586   3
  -6   1  -8 2364.95 224.813   1
   6  -1   8 2327.17 202.070   4
  -6  -1  -8 2030.41 228.378   1
  -6  -1  -9 5249.34 369.066   1
  -6   1  -9 5832.14 382.057   3
  -6  -1  -9 5013.56 343.001   3
  -6   1  -9 5450.29 361.288   1
   6  -1   9 5307.47 328.492   4
   6  -1   9 4432.84 233.451   2
  -6   1 -10 1929.15 228.172   1
  -6   1 -10 1697.70 217.364   3
  -6  -1 -10 2143.07 228.950   3
  -6  -1 -10 1720.50 221.579   1
   6  -1  10 1785.74 151.853   2
   6  -1  11 1952.58 169.415   2
  -6   1 -11 2945.94 295.808   3
  -6  -1 -11 2393.78 243.997   3
  -6   1 -11 2677.91 285.591   1
  -6  -1 -11 2453.36 266.594   1
  -6   1 -12 1603.82 225.165   3
  -6  -1 -12 1666.51 214.357   3
  -6   1 -12 2049.10 254.721   1
  -6  -1 -12 1618.91 223.304   1
   6  -1  12 1366.50 150.142   2
  -6   1 -13 245.881 110.960   3
  -6  -1 -13 189.402 86.7487   3
  -6   1 -13 257.058 117.577   1
  -6  -1 -13 337.716 121.732   1
  -6   1 -14 264.401 91.4927   3
  -6  -1 -14 319.166 104.877   3
  -6   1 -14 186.270 98.3546   1
  -6  -1 -14 256.768 95.4514   1
  -6   1 -15 2060.96 292.760   1
  -6   1 -15 2159.41 297.066   3
  -6  -1 -15 2040.13 253.178   3
  -6  -1 -15 1804.91 266.987   1
  -6   1 -16 185.933 115.435   3
  -6  -1 -16 151.766 99.5916   3
  -6   1 -16 196.712 113.675   1
  -6  -1 -16 102.444 80.9637   1
  -6   1 -17 1535.45 259.956   3
  -6   1 -17 1304.59 272.231   1
  -6  -1 -17 1011.30 226.754   1
  -6  -1 -17 1150.24 202.669   3
  -6   1 -18-31.5687 75.2650   1
  -6  -1 -18 55.2374 101.040   1
   6   2 -18 136.134 133.590   4
   6  -2 -18 106.225 120.451   4
   6  -2 -18 113.196 105.710   2
   6  -2 -18 117.573 101.815   1
   6   2 -17 76.3516 103.193   4
   6  -2 -17 88.2182 103.142   4
   6   2 -17 191.567 116.620   2
   6  -2 -17-3.22760 67.0976   2
   6  -2 -17 57.6175 75.4652   1
   6   2 -16 145.327 129.477   4
   6   2 -16 37.2023 62.3405   2
   6  -2 -16-8.84551 69.8115   2
   6  -2 -16 75.5750 73.9213   1
   6  -2 -16 62.9155 75.1752   4
   6   2 -15 180.838 124.971   4
   6  -2 -15-14.6216 82.1343   4
   6   2 -15 143.336 112.954   2
   6  -2 -15 109.527 132.833   2
   6  -2 -15 50.0612 67.3722   1
   6  -2 -14 835.316 126.384   3
   6  -2 -14 1026.26 224.097   2
   6  -2 -14 848.910 148.397   1
   6   2 -14 1393.51 273.159   4
   6   2 -14 852.857 188.501   2
   6  -2 -14 1003.50 209.047   4
   6   2 -13 762.611 209.567   4
   6   2 -13 1275.83 233.239   2
   6  -2 -13 1202.96 221.053   4
   6  -2 -13 1192.89 235.140   2
   6  -2 -12 1286.94 250.277   2
   6   2 -12 1163.75 234.534   4
   6   2 -12 760.161 194.938   2
   6  -2 -12 1091.81 207.797   4
   6   2 -11-119.484 110.800   4
   6  -2 -11 36.6384 79.3415   4
   6   2 -11 136.265 86.3862   2
   6  -2 -11 41.2308 86.1930   2
   6  -2 -11 16.7015 42.9361   3
   6  -2 -10 7282.48 335.013   3
   6  -2 -10 6008.31 495.222   2
   6   2 -10 5876.26 461.193   2
   6   2 -10 5769.00 506.835   4
   6  -2 -10 5958.77 419.363   4
   6  -2  -9 4840.98 248.400   3
   6   2  -9 4073.43 382.256   2
   6  -2  -9 3853.78 375.934   2
   6   2  -9 3329.00 369.824   4
   6  -2  -9 4293.26 348.551   4
   6  -2  -8 31.4997 38.8954   4
   6  -2  -8 112.993 75.9528   2
   6  -2  -8 57.6046 43.2681   3
   6  -2  -8-9.41135 34.4777   1
   6   2  -8-53.2858 56.8172   4
   6  -2  -7 7994.55 523.905   2
   6  -2  -7 8483.83 318.427   3
   6  -2  -7 6298.34 254.292   1
   6   2  -7 6760.77 511.879   4
   6  -2  -7 7925.40 423.956   4
   6  -2  -6 1800.73 147.697   3
   6  -2  -6 1388.40 85.3368   1
   6  -2  -6 1712.86 187.501   4
   6  -2  -6 1821.70 237.740   2
   6   2  -6 1690.19 258.190   4
   6  -2  -5 1925.51 154.355   3
  -6   2   5 1535.37 156.929   3
  -6   2   5 1546.49 186.908   4
   6  -2  -5 1700.23 223.054   2
   6   2  -5 1409.61 226.135   4
   6  -2  -4 10681.6 529.471   2
   6  -2  -4 11227.8 383.023   3
  -6   2   4 10452.9 393.047   3
   6   2  -4 9547.20 562.273   4
  -6   2   4 10966.9 468.422   4
   6  -2  -4 10952.6 413.292   4
   6   2  -3 967.919 190.444   4
   6  -2  -3 1617.45 157.013   3
  -6   2   3 1797.94 154.481   3
  -6  -2   3 1088.23 201.968   1
   6  -2  -3 2140.97 170.897   4
   6  -2  -3 1651.95 221.257   2
  -6   2   3 1737.46 182.291   4
   6  -2  -2 430.965 100.342   3
   6  -2  -2 328.390 102.784   2
   6  -2  -2 385.116 69.4787   4
  -6   2   2 316.031 68.8436   3
  -6  -2   2 345.854 122.347   1
  -6   2   2 284.735 69.6653   4
  -6   2   1 1059.12 74.7014   1
   6  -2  -1 1257.66 147.062   3
  -6   2   1 1055.86 122.027   3
  -6  -2   1 1277.75 204.696   1
  -6   2   1 1176.44 182.155   2
  -6   2   1 1091.39 111.709   4
   6  -2  -1 1205.83 167.988   2
   6  -2  -1 1236.45 99.9411   4
   6  -2   0 3356.97 248.251   3
  -6   2   0 3240.57 217.453   3
  -6  -2   0 3562.03 327.645   1
  -6   2   0 3121.85 269.818   2
  -6   2   0 2746.08 130.530   4
   6  -2   0 3371.45 260.452   2
  -6   2   0 3869.31 152.922   1
  -6  -2  -1 13090.6 610.009   1
  -6   2  -1 12900.6 446.865   3
   6  -2   1 14356.1 509.275   2
  -6   2  -1 12836.2 311.670   1
  -6   2  -2 18741.6 569.614   3
  -6  -2  -2 18763.2 707.854   1
  -6   2  -2 17825.4 419.930   1
   6  -2   2 18381.7 547.300   2
  -6  -2  -3 2702.35 267.258   1
  -6   2  -3 2755.00 228.063   3
  -6   2  -3 2454.58 172.198   1
   6  -2   3 2880.34 206.982   2
  -6  -2  -4 11901.2 561.127   1
  -6   2  -4 10092.9 452.798   3
  -6  -2  -4 10188.0 541.057   3
  -6   2  -4 9768.60 390.280   1
   6  -2   4 11359.6 383.230   2
  -6  -2  -5 1710.19 217.925   1
  -6   2  -5 2111.62 215.266   3
  -6  -2  -5 1845.22 234.024   3
  -6   2  -5 2065.49 189.018   1
   6  -2   5 1861.35 144.476   2
  -6  -2  -6 1493.02 204.565   1
   6  -2   6 1205.53 104.963   2
  -6   2  -6 1582.46 199.611   3
  -6  -2  -6 1794.26 227.256   3
  -6   2  -6 1626.30 178.759   1
  -6  -2  -7 986.427 167.097   1
   6  -2   7 962.065 71.0082   2
   6  -2   7 777.833 84.8658   4
  -6   2  -7 999.577 162.103   3
   6  -2   7 640.507 67.8196   2
  -6   2  -7 1018.38 151.763   1
  -6  -2  -7 1069.46 182.124   3
  -6   2  -8 1329.64 186.723   1
  -6   2  -8 844.343 156.514   3
  -6  -2  -8 1059.93 182.233   3
   6  -2   8 1048.24 120.969   4
  -6  -2  -9 324.099 119.578   1
  -6   2  -9 439.991 134.471   3
  -6   2  -9 474.670 113.214   1
  -6  -2  -9 564.897 128.499   3
   6  -2   9 409.023 99.2271   4
  -6  -2 -10 674.398 153.080   1
  -6   2 -10 495.279 127.890   3
  -6   2 -10 489.175 114.412   1
  -6  -2 -10 492.007 129.995   3
   6  -2  10 681.208 125.761   4
  -6  -2 -11 70.3972 89.8289   1
  -6   2 -11 173.335 113.577   3
  -6   2 -11-38.0579 63.2101   1
  -6  -2 -11-51.7439 63.3522   3
  -6  -2 -12-5.92145 61.2477   1
  -6   2 -12 201.486 119.436   3
  -6   2 -12 185.293 99.1147   1
  -6  -2 -13 4159.00 394.239   1
  -6   2 -13 5359.16 462.704   3
  -6  -2 -13 3946.11 343.212   3
  -6   2 -13 5300.01 445.302   1
  -6   2 -14 3455.57 384.033   3
  -6  -2 -14 3764.74 348.521   3
  -6   2 -14 4725.98 439.911   1
  -6  -2 -14 3820.68 403.118   1
  -6  -2 -15 154.345 89.4165   1
  -6   2 -15 6.68909 84.3596   3
  -6   2 -15 174.071 114.039   1
  -6  -2 -15 90.4821 88.2519   3
  -6  -2 -16 210.068 117.739   1
  -6   2 -16 164.088 138.046   3
  -6   2 -16 193.111 135.394   1
  -6  -2 -16 2.01829 80.2956   3
  -6  -2 -17 142.180 132.739   1
  -6   2 -17-37.1552 80.0396   3
  -6   2 -17 95.0542 125.909   1
  -6  -2 -17 172.429 109.927   3
   6   3 -16 177.784 145.403   4
   6  -3 -16 29.9251 108.970   2
   6   3 -15 134.885 133.871   4
   6  -3 -15-5.98475 66.4572   2
   6   3 -14 236.791 156.028   4
   6   3 -14 271.752 135.389   2
   6  -3 -14 371.509 147.287   2
   6   3 -13 1053.20 233.488   4
   6   3 -13 929.659 206.694   2
   6  -3 -13 1342.13 256.450   2
   6   3 -12-14.3639 84.8456   4
   6   3 -12 61.2042 88.5461   2
   6  -3 -12 89.4657 102.647   2
   6  -3 -12 74.1219 44.1164   1
   6   3 -11 569.797 187.287   2
   6  -3 -11 791.260 201.865   2
   6  -3 -11 825.731 103.881   1
   6   3 -11 1041.15 228.883   4
   6   3 -10 252.066 124.064   2
   6  -3 -10 245.569 48.2738   1
   6  -3 -10 124.928 91.6450   2
   6   3 -10 269.480 140.072   4
   6   3  -9 1096.03 239.536   4
   6  -3  -9 1339.76 243.435   2
   6  -3  -8 519.145 154.249   2
   6   3  -8 369.784 133.853   4
   6  -3  -7 431.745 129.814   2
   6   3  -7 372.564 131.215   4
   6   3  -6 3041.93 359.185   4
   6  -3  -6 3278.19 330.983   2
   6  -3  -5 3772.47 224.100   3
  -6   3   5 4502.03 244.905   3
   6   3  -5 5083.53 452.512   4
   6  -3  -5 4493.31 376.293   2
  -6   3   4 341.880 95.2531   4
   6  -3  -4 301.437 92.5970   3
  -6   3   4 469.892 82.9527   3
   6  -3  -4 517.001 139.324   2
   6   3  -4 182.910 104.922   4
   6  -3  -3 1216.46 157.079   3
  -6   3   3 1406.29 142.270   3
  -6  -3   3 1677.66 283.873   1
   6   3  -3 1577.30 248.519   4
  -6   3   3 1550.57 171.469   4
   6  -3  -3 1754.80 223.227   2
  -6  -3   2 965.969 205.243   1
   6  -3  -2 667.109 129.758   3
  -6   3   2 810.390 103.977   3
   6  -3  -2 830.076 148.237   2
  -6   3   2 796.105 115.002   4
   6  -3  -1 10809.2 504.581   2
  -6   3   1 9474.21 381.294   3
  -6  -3   1 11034.5 672.741   1
  -6   3   0 1.25791 25.7969   1
   6  -3   0 61.9431 43.9824   2
  -6   3   0-3.65218 33.8552   3
  -6   3   0 10.9135 14.7601   1
  -6   3   0 25.1069 22.5964   4
  -6   3  -1 45.6847 57.7886   2
   6  -3   1 49.7873 40.8655   2
  -6   3  -1 14.6785 42.9689   3
  -6  -3  -1-60.9374 78.1350   1
  -6   3  -1 40.9827 22.9684   1
  -6   3  -2 1440.36 174.063   3
  -6  -3  -2 1503.12 243.867   1
  -6   3  -2 1388.84 191.686   2
  -6   3  -2 1659.58 141.922   1
   6  -3   2 2015.71 186.618   2
  -6  -3  -3 384.564 130.150   1
   6  -3   3 199.223 60.9335   2
  -6   3  -3 332.080 90.1560   3
  -6   3  -3 130.217 54.7774   1
  -6  -3  -4 685.808 158.103   1
  -6   3  -4 461.594 105.387   3
   6  -3   4 634.985 84.9906   2
  -6  -3  -5 3711.50 359.327   1
  -6   3  -5 3210.06 286.367   3
   6  -3   5 3062.63 149.572   2
  -6   3  -6 117.490 73.8898   3
  -6  -3  -6 11.7857 46.7335   1
  -6   3  -7 35.2139 40.0018   3
  -6  -3  -7 45.8862 80.3455   1
  -6  -3  -8 2317.49 308.583   1
  -6   3  -8 2080.08 264.013   3
  -6   3  -9 24.5036 44.1994   3
  -6  -3  -9 44.3927 62.6655   1
  -6  -3 -10 4653.72 429.358   1
  -6   3 -10 4101.08 390.852   3
  -6  -3 -11 33.4075 50.0602   1
  -6   3 -11 292.900 102.084   3
  -6  -3 -11 510.323 157.978   3
  -6  -3 -12 1000.62 206.625   1
  -6   3 -12 1184.63 222.322   3
  -6  -3 -12 1392.20 240.078   3
  -6  -3 -13 116.979 85.2410   1
  -6   3 -13 182.695 127.422   3
  -6  -3 -13 184.442 122.355   3
  -6  -3 -14 220.487 113.564   1
  -6   3 -14 110.446 99.1340   3
  -6  -3 -15 474.111 172.871   1
  -6   3 -15-61.6209 73.4048   3
   6   4 -14-36.7640 99.0788   4
   6  -4 -14 54.0572 121.500   2
   6   4 -13 249.382 144.454   4
   6  -4 -13 49.4464 99.2477   2
   6   4 -12 605.277 230.288   4
   6  -4 -12 6.62362 82.1726   2
   6   4 -11 341.032 136.133   2
   6  -4 -11 443.819 188.070   2
   6   4 -11 420.906 189.424   4
   6  -4 -10 124.511 101.278   2
   6   4 -10 226.874 134.102   4
   6  -4  -9 27.0328 63.5499   2
   6   4  -9 140.635 129.207   4
   6  -4  -8 341.346 148.682   2
   6   4  -8 157.704 128.936   4
   6  -4  -7 478.134 135.487   2
   6   4  -7 472.468 162.688   4
   6   4  -6 2025.59 316.724   4
   6  -4  -6 1728.92 260.630   2
   6  -4  -5 419.882 136.646   2
   6   4  -5 513.138 178.487   4
   6  -4  -4 165.186 79.4768   2
  -6   4   4 116.982 49.0680   3
   6   4  -4-24.3948 78.4959   4
   6  -4  -3 152.065 72.8697   2
  -6   4   3 82.4268 52.8848   3
   6  -4  -2 522.458 128.956   2
  -6   4   2 344.306 81.6594   3
  -6   4   1 12.1591 41.6335   3
  -6  -4   1-62.0102 94.7888   1
  -6   4   0 230.795 85.2808   3
   6  -4   0 217.076 74.7542   2
  -6  -4   0 275.951 166.091   1
  -6   4  -1 749.912 129.174   3
  -6   4  -1 590.719 91.9818   1
  -6  -4  -1 1098.63 251.133   1
   6  -4   1 1138.41 158.617   2
   6  -4   2 591.549 108.637   2
  -6  -4  -2 574.827 189.127   1
  -6   4  -2 221.224 78.8559   3
   6  -4   3 1677.33 165.206   2
  -6   4  -3 1469.71 201.159   3
  -6  -4  -3 1200.36 236.417   1
  -6   4  -4-50.6025 42.3764   3
   6  -4   4 199.237 54.0808   2
  -6  -4  -4 84.7794 100.960   1
  -6   4  -5-45.2446 67.9722   3
  -6  -4  -5 19.3586 60.2807   1
  -6   4  -6 833.142 172.888   3
  -6  -4  -6 687.296 188.727   1
  -6  -4  -7 588.200 178.999   1
  -6   4  -7 671.064 163.673   3
  -6  -4  -8 44.9853 64.7201   1
  -6   4  -8 33.5906 85.9936   3
  -6   4  -9 533.454 172.123   3
  -6  -4  -9 594.612 180.508   1
  -6   4 -10 272.370 174.745   3
  -6  -4 -10 53.1834 80.6410   1
  -6  -4 -11 123.417 107.042   1
  -6   4 -11 162.756 143.075   3
  -6   4 -12 559.616 175.453   3
  -6  -4 -12 705.041 228.330   1
  -6   4 -13 86.2757 76.3623   3
  -6  -4 -13 366.557 167.660   1
   6  -5  -9 78.2260 112.593   2
   6   5  -9 4.45524 105.847   4
   6  -5  -8 280.951 149.959   2
   6   5  -8 399.207 210.847   4
   6  -5  -7 32.3720 63.9051   2
   6   5  -7 107.109 138.111   4
   6  -5  -6 205.074 113.667   2
   6   5  -6 137.265 162.882   4
   6  -5  -5-22.6502 54.7867   2
   6   5  -5 11.8866 82.5316   4
   6  -5  -4 868.180 191.112   2
   6   5  -4 695.209 219.271   4
   6  -5  -3 14.9524 57.0254   2
   6   5  -3 104.082 135.510   4
   6  -5  -2 77.9629 68.1258   2
   6   5  -2 339.881 161.581   4
   6  -5  -1 25.0632 55.2715   2
  -6   5   0 6.39022 53.6076   3
   6  -5   0 8.85509 50.9073   2
  -6   5  -1 180.803 120.581   3
   6  -5   1 72.4279 69.9878   2
  -6  -5  -1 116.731 136.174   1
  -6   5  -2-1.65153 52.4457   3
  -6  -5  -2 7.66191 130.195   1
  -6  -5  -3 880.474 251.307   1
  -6   5  -3 448.266 121.062   3
  -6   5  -4 110.032 103.519   3
  -6  -5  -4 266.237 156.139   1
  -6  -5  -5 950.730 229.642   1
  -6   5  -5 507.877 143.063   3
  -6  -5  -6 533.326 192.773   1
  -6   5  -6 558.100 154.051   3
  -6   5  -7 28.1518 67.7790   3
  -6  -5  -7 38.8058 107.339   1
  -6   5  -8-64.4166 88.1578   3
  -6  -5  -8 17.3945 91.7001   1
   7   0 -19 72.1565 129.260   4
   7   0 -19 163.349 121.610   2
   7   0 -18 3.75603 75.6564   4
   7   0 -18 66.9902 117.972   2
   7   0 -17 2257.92 337.157   2
   7   0 -17 2158.07 334.840   4
   7   0 -16-74.3782 76.9471   4
   7   0 -16-16.1648 64.3147   2
   7   0 -15 13729.7 795.944   4
   7   0 -15 14242.9 797.900   2
   7   0 -14-20.9538 63.3882   4
   7   0 -14-31.9558 56.1917   2
   7   0 -13 40236.1 1334.95   2
   7   0 -13 37343.3 1265.88   4
   7   0 -12 10.1659 92.5626   4
   7   0 -12 208.931 106.175   2
   7   0 -11 33159.4 1131.13   4
   7   0 -11 32060.8 1113.78   2
   7   0 -10-26.7399 56.6193   4
   7   0 -10-5.41177 50.3077   2
   7   0  -9 7831.60 527.938   4
   7   0  -9 7981.94 535.716   2
   7   0  -8 12.6359 42.0702   4
   7   0  -8 33.2305 40.3073   2
   7   0  -7 17069.8 730.276   2
   7   0  -7 14538.5 640.343   4
   7   0  -6-23.3583 47.6907   2
   7   0  -6-24.0582 48.2156   1
   7   0  -6 39.5288 52.6758   4
   7   0  -5 82787.4 1394.48   1
   7   0  -5 83009.0 1485.48   4
   7   0  -4-34.5089 44.6870   2
   7   0  -4 9.35202 42.6993   1
  -7   0   4 38.2372 66.9461   1
   7   0  -4 63.4863 58.5776   4
   7   0  -3 48703.6 968.632   1
  -7   0   3 46720.7 989.787   1
  -7   0   3 46353.4 1003.39   4
   7   0  -3 45198.6 1015.78   4
   7   0  -2 40.3865 27.3893   1
  -7   0   2 23.8611 45.3137   1
  -7   0   2 9.84566 50.4486   3
   7   0  -2-5.50383 37.6571   4
   7   0  -1 2700.09 215.828   1
  -7   0   1 2370.09 212.082   1
  -7   0   1 2843.80 249.769   3
   7   0  -1 2141.76 209.419   4
   7   0   0 5.24332 33.4743   1
  -7   0   0-1.03093 36.8343   3
  -7   0   0 32.3707 48.7233   1
   7   0   0 32.6957 53.0143   4
  -7   0  -1 12959.4 506.886   3
   7   0   1 13081.8 469.457   1
  -7   0  -2 4.59801 28.1863   1
  -7   0  -2-43.8093 58.1574   3
   7   0   2-6.87412 36.7550   1
  -7   0  -3 53799.0 951.977   1
  -7   0  -3 52552.2 1030.62   3
  -7   0  -4 74.0773 55.1210   1
  -7   0  -4-32.1896 35.0826   3
  -7   0  -5 34741.1 808.474   1
  -7   0  -5 32236.7 803.628   3
  -7   0  -6-16.8526 46.6707   3
  -7   0  -6-17.0256 40.9395   1
  -7   0  -7 9700.46 457.106   3
  -7   0  -7 9930.81 456.771   1
  -7   0  -8 33.8886 39.7202   3
  -7   0  -8-8.42206 49.1286   1
  -7   0  -9 179.595 90.6752   1
  -7   0  -9-65.3819 71.9587   3
  -7   0 -10 175.130 75.5394   3
  -7   0 -10-0.66128 36.7851   1
  -7   0 -11-41.9336 51.7895   3
  -7   0 -11 19.9066 58.7692   1
  -7   0 -12 10.3076 42.5112   3
  -7   0 -12 13.0089 54.1389   1
  -7   0 -13 593.971 143.562   3
  -7   0 -13 844.805 178.190   1
  -7   0 -14 94.0768 102.294   3
  -7   0 -14 118.853 82.5878   1
  -7   0 -15 336.517 121.384   1
  -7   0 -15 315.672 111.207   3
  -7   0 -16 22.7015 55.2153   3
  -7   0 -16-59.7047 68.2959   1
  -7   0 -17-28.5563 56.8797   3
  -7   0 -17-52.5147 89.6797   1
  -7   0 -18 69.5671 97.6063   3
  -7   0 -18-6.04450 73.2689   1
   7  -1 -19 1629.89 319.917   2
   7   1 -19 1994.19 321.018   2
   7   1 -19 2293.15 379.704   4
   7  -1 -19 1740.93 327.487   4
   7   1 -18 136.349 111.401   4
   7  -1 -18 138.897 142.831   4
   7   1 -18 134.669 142.027   2
   7  -1 -18 356.226 159.060   2
   7   1 -17 2943.20 410.249   4
   7  -1 -17 2746.90 361.898   4
   7   1 -17 2257.96 337.445   2
   7  -1 -17 2232.41 371.439   2
   7   1 -16-69.3823 67.6691   4
   7  -1 -16 43.9987 73.3099   4
   7   1 -16 133.633 112.651   2
   7  -1 -16 78.7080 109.782   2
   7   1 -15-59.8880 71.4484   4
   7  -1 -15 128.289 103.847   4
   7   1 -15 75.7854 61.2256   2
   7  -1 -15 144.217 115.433   2
   7   1 -14 182.611 97.7918   4
   7  -1 -14 338.674 106.989   4
   7   1 -14 256.659 121.549   2
   7  -1 -14 204.798 89.7113   2
   7  -1 -13 10930.0 651.879   4
   7   1 -13 12577.5 777.784   4
   7   1 -13 12489.6 704.583   2
   7  -1 -13 10828.5 688.238   2
   7   1 -12 4635.27 433.892   2
   7   1 -12 4136.74 442.845   4
   7  -1 -12 4325.77 381.952   4
   7  -1 -12 4354.12 419.591   2
   7   1 -11 4379.87 427.762   2
   7  -1 -11 4681.21 387.539   4
   7   1 -11 4759.17 444.601   4
   7  -1 -11 4343.99 419.302   2
   7   1 -10 24866.4 951.684   2
   7   1 -10 22454.7 936.056   4
   7  -1 -10 22209.6 831.110   4
   7  -1 -10 24730.5 1003.42   2
   7   1  -9 2820.99 330.314   4
   7  -1  -9 2516.32 272.401   1
   7   1  -9 3081.16 344.366   2
   7  -1  -9 2477.47 284.811   4
   7  -1  -9 2489.71 303.053   2
   7  -1  -8 491.280 129.592   2
   7  -1  -8 1212.09 172.781   3
   7  -1  -8 1213.46 175.706   1
   7  -1  -8 968.893 167.562   4
   7   1  -8 1050.40 204.789   4
   7   1  -8 991.826 191.949   2
   7  -1  -7 6311.83 404.960   4
   7  -1  -7 6421.10 374.385   3
   7  -1  -7 6070.67 351.191   1
   7   1  -7 6766.35 478.537   2
   7   1  -7 6058.28 457.953   4
   7  -1  -7 6071.81 446.658   2
   7  -1  -6 4936.49 296.904   1
   7  -1  -6 4986.70 315.151   3
   7   1  -6 4616.04 383.428   4
   7  -1  -6 5705.34 374.486   4
   7  -1  -6 4717.28 385.881   2
   7  -1  -5 3171.67 224.291   1
   7  -1  -5 3614.01 258.017   3
   7   1  -5 2928.43 308.552   4
   7  -1  -5 3046.42 312.077   2
   7  -1  -5 3175.92 261.263   4
   7  -1  -4 27488.9 604.241   1
   7  -1  -4 26556.9 702.988   3
  -7   1   4 24441.3 696.268   3
  -7  -1   4 24662.7 877.638   1
  -7   1   4 25311.7 764.445   4
   7   1  -4 25195.3 871.181   4
   7  -1  -4 27307.2 895.523   2
   7  -1  -4 24852.4 709.826   4
   7  -1  -3 4768.52 225.561   1
   7  -1  -3 5127.52 380.354   2
   7  -1  -3 4900.40 294.828   3
  -7   1   3 4974.13 309.422   3
  -7  -1   3 4417.73 358.005   1
  -7   1   3 5796.26 325.879   1
  -7   1   3 4697.34 307.987   4
   7   1  -3 4026.00 349.286   4
   7  -1  -3 4730.39 281.421   4
   7  -1  -2 699.979 144.588   2
   7  -1  -2 799.689 118.330   3
  -7   1   2 1020.71 127.921   1
  -7   1   2 838.695 123.433   3
  -7  -1   2 750.258 141.695   1
   7  -1  -2 744.297 111.301   4
   7  -1  -2 897.696 95.8636   1
  -7   1   2 814.223 120.152   4
   7   1  -2 733.518 148.267   4
   7  -1  -1 25108.7 785.925   2
  -7   1   1 25327.3 570.551   1
   7  -1  -1 26307.7 682.640   3
  -7  -1   1 25489.1 790.398   1
  -7   1   1 24551.9 637.109   3
   7  -1  -1 25532.4 593.221   4
   7  -1  -1 25820.4 520.675   1
  -7   1   0 1357.82 130.272   1
  -7  -1   0 1642.24 202.841   1
  -7   1   0 1430.04 161.009   3
  -7  -1   0 1114.36 176.877   3
   7  -1   0 1339.57 124.431   4
   7  -1   0 1307.74 178.004   2
   7  -1   0 1489.86 133.457   1
   7  -1   1 1012.95 107.091   4
  -7   1  -1 975.762 109.346   1
   7  -1   1 1052.27 120.965   1
  -7  -1  -1 1090.78 160.908   1
  -7   1  -1 1186.61 147.462   3
  -7  -1  -1 958.617 173.971   3
   7  -1   1 908.062 142.978   2
  -7  -1  -2 1754.83 200.249   1
   7  -1   2 1823.86 178.055   1
  -7   1  -2 1409.41 159.128   3
  -7  -1  -2 1812.18 221.912   3
   7  -1   2 1720.41 134.092   4
  -7   1  -2 1552.82 140.165   1
  -7   1  -3 4473.82 287.708   3
  -7  -1  -3 4795.29 350.496   3
  -7   1  -3 4738.00 254.864   1
  -7  -1  -4 27108.8 755.683   1
  -7   1  -4 27097.3 731.691   3
  -7  -1  -4 27433.6 810.581   3
  -7   1  -4 26408.4 620.676   1
  -7   1  -5 4327.77 306.011   3
  -7  -1  -5 3769.18 295.660   3
  -7   1  -5 4489.48 271.814   1
   7  -1   5 4161.18 209.823   4
   7  -1   6-8.73565 29.8869   4
  -7  -1  -6 21.1772 51.6971   1
  -7   1  -6 40.8252 62.2512   3
  -7  -1  -6-56.7301 40.2612   3
  -7   1  -6 106.760 55.5171   1
  -7   1  -7 3300.13 288.168   3
  -7  -1  -7 3210.27 284.539   3
  -7   1  -7 3619.72 267.939   1
   7  -1   7 3568.32 229.263   4
  -7  -1  -7 3500.98 290.276   1
  -7  -1  -8 72.5958 50.0279   1
  -7   1  -8 53.6490 63.6411   3
   7  -1   8 7.12683 34.8121   4
  -7  -1  -8 98.1677 70.5943   3
   7  -1   8 144.220 50.1670   2
  -7   1  -8 110.643 55.6356   1
  -7  -1  -9 144.505 79.7101   1
  -7   1  -9 422.310 121.336   3
  -7  -1  -9 298.660 99.8258   3
   7  -1   9 230.196 63.8734   2
  -7   1  -9 321.879 106.630   1
  -7  -1 -10-50.4545 65.1652   1
  -7   1 -10 73.0377 56.5888   3
   7  -1  10 27.9491 33.3502   2
  -7  -1 -10 15.1761 42.2484   3
  -7   1 -10-53.5472 53.0345   1
  -7   1 -11 1984.65 255.254   3
  -7  -1 -11 1637.76 215.357   3
  -7  -1 -11 1962.99 252.278   1
  -7   1 -11 1813.86 237.682   1
   7  -1  11 1710.49 166.542   2
  -7  -1 -12 662.717 153.909   3
  -7   1 -12 625.899 145.918   3
  -7   1 -12 711.708 157.136   1
  -7  -1 -12 886.410 195.425   1
  -7   1 -13 88.5972 89.0306   3
  -7  -1 -13 8.91237 71.7389   3
  -7   1 -13 112.836 95.8096   1
  -7  -1 -13 134.428 92.6831   1
  -7   1 -14 100.930 84.8452   3
  -7  -1 -14-63.8144 75.8667   3
  -7   1 -14 18.4310 63.8748   1
  -7  -1 -14 79.1755 85.9146   1
  -7   1 -15 143.827 84.2175   3
  -7  -1 -15 245.123 70.5847   3
  -7  -1 -15 303.015 124.356   1
  -7   1 -16 375.894 146.442   3
  -7  -1 -16 309.476 113.149   3
  -7   1 -16 283.964 126.808   1
  -7  -1 -16 372.493 133.455   1
  -7   1 -17 403.336 149.643   3
  -7  -1 -17 496.294 154.613   3
  -7   1 -17 259.687 129.345   1
  -7  -1 -17 770.422 202.139   1
  -7   1 -18-35.0960 88.6976   3
  -7  -1 -18 182.974 115.222   3
  -7   1 -18 246.125 117.653   1
  -7  -1 -18 2.83063 62.3788   1
   7   2 -18 353.770 182.320   4
   7  -2 -18 39.2262 74.1439   4
   7   2 -18 42.2233 87.0181   2
   7  -2 -18 332.847 151.082   2
   7  -2 -18 137.194 88.5008   1
   7   2 -17 537.827 175.269   4
   7  -2 -17 594.561 192.698   4
   7   2 -17 275.675 140.060   2
   7  -2 -17 252.685 122.103   2
   7  -2 -17 343.100 119.218   1
   7   2 -16 85.1160 128.609   4
   7  -2 -16 199.728 136.175   4
   7   2 -16-49.6060 102.520   2
   7  -2 -16 175.025 136.890   2
   7   2 -15 299.969 166.869   4
   7  -2 -15 112.241 88.2568   4
   7   2 -15 213.446 119.571   2
   7  -2 -15 327.207 152.774   2
   7  -2 -14 4.48267 59.0439   4
   7   2 -14 134.101 98.5712   2
   7  -2 -14 116.218 122.553   2
   7   2 -14 170.409 135.756   4
   7   2 -13 66.0313 98.4422   4
   7  -2 -13 88.5622 62.2331   4
   7   2 -13-59.4910 71.4250   2
   7  -2 -13-4.97048 73.2727   2
   7   2 -12 1233.52 231.200   2
   7  -2 -12 582.102 168.821   2
   7   2 -12 1071.53 245.925   4
   7  -2 -12 997.039 208.072   4
   7   2 -11 9.96781 75.7980   4
   7  -2 -11 82.6696 57.3865   4
   7   2 -11 78.5264 81.0434   2
   7  -2 -11 174.423 95.5494   2
   7  -2 -11 98.1090 72.8952   3
   7   2 -10 1265.59 257.252   4
   7  -2 -10 1328.00 161.437   3
   7  -2 -10 1093.81 157.337   1
   7   2 -10 1166.54 234.387   2
   7  -2 -10 880.209 172.286   4
   7  -2 -10 1076.85 208.531   2
   7  -2  -9 35165.8 770.560   1
   7   2  -9 32394.7 1120.03   2
   7   2  -9 33608.1 1223.76   4
   7  -2  -9 34420.0 977.695   4
   7  -2  -9 34930.9 1174.91   2
   7  -2  -8 10207.4 615.960   2
   7  -2  -8 11412.3 412.472   3
   7  -2  -8 9389.70 348.721   1
   7   2  -8 9785.53 642.304   4
   7  -2  -8 9563.73 489.747   4
   7  -2  -7 3616.47 182.579   1
   7   2  -7 3302.74 367.960   4
   7  -2  -7 3537.58 281.780   4
   7  -2  -7 3934.97 382.240   2
   7   2  -6 8817.75 601.501   4
   7  -2  -6 10220.5 390.572   3
   7  -2  -6 9071.46 432.765   4
   7  -2  -6 8627.43 531.708   2
   7  -2  -5 1291.59 148.269   3
  -7   2   5 951.211 138.839   3
   7   2  -5 1060.68 213.381   4
   7  -2  -5 1182.20 210.138   2
   7  -2  -5 1083.42 142.025   4
   7  -2  -4 16228.3 512.019   3
  -7   2   4 16083.9 555.116   3
  -7  -2   4 15331.9 786.848   1
   7   2  -4 15036.8 745.622   4
  -7   2   4 14907.8 581.755   4
   7  -2  -4 15870.3 705.192   2
   7  -2  -4 16026.0 520.309   4
   7  -2  -3 193.005 75.0968   2
   7  -2  -3 269.922 74.9452   3
  -7  -2   3 323.420 123.854   1
  -7   2   3 390.461 80.7986   3
   7  -2  -3 472.065 86.3280   4
   7   2  -3 209.950 101.252   4
  -7   2   3 394.309 98.8597   4
   7  -2  -2 12868.9 573.847   2
   7  -2  -2 12142.6 475.432   3
  -7   2   2 13195.9 458.116   3
  -7  -2   2 13507.3 669.382   1
   7   2  -2 13025.0 654.496   4
  -7   2   2 13763.8 474.050   4
   7  -2  -2 14570.5 413.617   4
  -7   2   1 2637.70 180.991   4
  -7   2   1 2335.04 142.057   1
  -7   2   1 2249.65 192.755   3
  -7  -2   1 1985.04 257.298   1
   7  -2  -1 2663.07 256.108   2
   7  -2  -1 2692.51 155.217   4
  -7   2   0 3996.51 179.186   1
  -7   2   0 3516.32 240.790   3
  -7  -2   0 4182.62 364.044   1
   7  -2   0 3747.12 296.618   2
   7  -2   0 3580.29 148.869   4
  -7  -2  -1 2259.52 271.274   1
  -7   2  -1 2021.63 190.893   3
   7  -2   1 2300.03 220.181   2
  -7   2  -1 2205.71 146.086   1
  -7  -2  -2 8281.40 499.411   1
  -7   2  -2 7920.28 384.092   3
   7  -2   2 8414.27 402.382   2
  -7   2  -2 7764.36 284.081   1
   7  -2   3 23924.5 651.662   2
  -7  -2  -3 23161.0 816.163   1
  -7   2  -3 21970.9 670.011   3
  -7   2  -3 22154.0 525.171   1
  -7  -2  -4 829.204 160.993   1
  -7   2  -4 1082.51 160.209   3
  -7  -2  -4 1600.53 229.136   3
  -7   2  -4 1282.90 137.483   1
   7  -2   4 1462.14 156.860   2
  -7  -2  -5 1136.10 198.716   1
  -7   2  -5 815.993 145.718   3
  -7  -2  -5 916.449 187.168   3
  -7   2  -5 1150.87 141.164   1
   7  -2   5 1068.13 141.713   2
   7  -2   6 67.2196 46.5602   2
  -7   2  -6 93.9059 69.4788   3
  -7  -2  -6 48.3020 60.1328   1
  -7   2  -6 151.874 61.3186   1
  -7  -2  -6 36.1173 60.8161   3
   7  -2   7 353.689 69.1983   2
  -7  -2  -7 166.392 86.7578   1
  -7   2  -7 70.6053 47.7678   3
  -7   2  -7 204.080 73.2351   1
  -7  -2  -7 480.505 145.333   3
   7  -2   7 170.387 42.5247   4
   7  -2   8 532.143 62.5210   2
   7  -2   8 255.761 58.3336   2
  -7  -2  -8 518.134 137.601   1
  -7   2  -8 572.907 136.031   3
  -7   2  -8 506.496 109.729   1
  -7  -2  -8 521.285 132.619   3
   7  -2   8 383.531 71.5301   4
   7  -2   9 108.649 33.0758   2
  -7  -2  -9 283.933 124.646   1
   7  -2   9 157.444 30.1783   2
  -7   2  -9 116.510 87.7838   3
  -7   2  -9 343.162 106.846   1
  -7  -2  -9 398.251 118.090   3
   7  -2   9 242.850 71.4567   4
  -7  -2 -10 1298.47 216.209   1
  -7   2 -10 1465.37 209.487   1
  -7   2 -10 1354.66 216.178   3
  -7  -2 -10 1736.75 254.520   3
   7  -2  10 1481.25 178.764   4
  -7  -2 -11 163.892 98.8715   1
  -7   2 -11 64.5498 61.6432   3
  -7   2 -11 77.8589 71.5786   1
  -7  -2 -11 142.170 97.1342   3
  -7   2 -12 1863.74 266.150   3
  -7  -2 -12 1379.36 230.833   3
  -7   2 -12 1973.98 267.246   1
  -7  -2 -12 2310.49 297.809   1
  -7  -2 -13 31.7513 60.1001   1
  -7   2 -13 73.1094 69.1466   3
  -7   2 -13-39.3156 69.1067   1
  -7  -2 -13 66.0364 68.8706   3
  -7  -2 -14 36.5212 67.7744   1
  -7   2 -14 114.574 91.6617   3
  -7   2 -14 159.382 106.808   1
  -7  -2 -14 45.2952 74.8324   3
  -7   2 -15 679.958 193.650   3
  -7   2 -15 1523.14 259.877   1
  -7  -2 -15 815.084 169.822   3
  -7  -2 -15 1312.20 256.225   1
  -7  -2 -16 19.6194 82.6933   1
  -7   2 -16 118.886 107.102   3
  -7   2 -16 119.301 127.834   1
  -7  -2 -16 44.0595 70.1960   3
  -7  -2 -17-59.6120 81.0446   1
  -7   2 -17 67.9162 119.747   3
  -7  -2 -17 153.649 118.072   3
  -7   2 -17 68.0613 114.984   1
   7   3 -16 599.813 203.080   4
   7  -3 -16 653.919 216.300   2
   7   3 -15 295.076 175.461   4
   7  -3 -15 242.337 130.786   4
   7  -3 -15 48.0544 94.3111   2
   7   3 -14 29.6506 105.475   4
   7  -3 -14 108.815 98.5819   4
   7   3 -14 155.175 115.000   2
   7  -3 -14-29.2800 102.424   2
   7   3 -13 451.972 203.634   4
   7  -3 -13 356.023 138.003   4
   7   3 -13 416.915 147.978   2
   7  -3 -13 467.244 171.227   2
   7   3 -12 8.97167 91.1117   4
   7   3 -12 117.855 99.4115   2
   7  -3 -12 35.7193 80.6411   4
   7  -3 -12-4.21414 64.3741   2
   7   3 -11 77.6285 96.9862   2
   7  -3 -11 52.5960 68.8941   4
   7  -3 -11 184.189 116.583   2
   7   3 -11 70.6731 97.1324   4
   7  -3 -10 15.4658 75.3872   4
   7  -3 -10 72.3200 61.0922   2
   7   3 -10 179.843 105.902   4
   7  -3  -9 111.566 85.8041   4
   7  -3  -9 69.6185 85.3572   2
   7   3  -9-34.3593 69.2100   4
   7  -3  -8 295.370 106.144   4
   7  -3  -8 122.192 39.2593   3
   7  -3  -8 147.509 100.391   2
   7   3  -8 36.7500 70.8070   4
   7  -3  -7-20.6225 57.6932   2
   7  -3  -7 57.4595 39.7002   3
   7   3  -7 53.8250 95.5225   4
   7  -3  -6 3719.16 231.446   3
   7   3  -6 4056.94 429.165   4
   7  -3  -5 519.493 102.889   3
  -7   3   5 710.553 118.352   3
   7  -3  -5 615.144 155.228   2
   7   3  -5 456.913 154.737   4
  -7   3   4 134.242 72.1537   4
   7  -3  -4 370.783 121.588   2
   7  -3  -4 282.244 76.0008   3
  -7   3   4 390.016 91.5802   3
   7   3  -4 272.071 104.238   4
   7  -3  -3 14873.8 554.047   3
  -7   3   3 17075.4 527.080   3
  -7  -3   3 20385.3 984.678   1
   7   3  -3 18364.8 861.248   4
  -7   3   3 18303.5 616.423   4
   7  -3  -3 20811.3 803.766   2
   7  -3  -2 6681.15 437.195   2
  -7   3   2 4265.83 264.919   3
  -7  -3   2 5845.49 534.815   1
  -7   3   2 4581.73 271.650   4
   7  -3  -1 427.017 117.282   2
  -7   3   1 282.611 76.6219   3
  -7  -3   1 146.081 94.3428   1
  -7   3   1 194.308 56.9409   4
  -7   3   0 1466.00 169.719   3
   7  -3   0 1279.01 180.588   2
  -7   3   0 1211.64 81.1664   1
   7  -3   1 49.8659 46.4127   2
  -7   3  -1 38.6204 44.7216   3
  -7   3  -1 45.2888 26.0427   1
  -7  -3  -1 41.1017 71.7797   1
  -7   3  -2 1390.89 124.166   1
  -7   3  -2 1278.80 172.829   3
  -7  -3  -2 1584.68 250.579   1
   7  -3   2 1879.93 195.516   2
  -7   3  -3 888.513 149.899   3
  -7  -3  -3 885.378 195.973   1
   7  -3   3 1048.17 137.882   2
  -7   3  -3 704.757 104.617   1
  -7  -3  -4 342.796 142.948   1
   7  -3   4 181.993 60.1770   2
  -7   3  -4 320.407 106.352   3
  -7   3  -4 53.1927 43.8869   1
  -7  -3  -5 29.4567 49.9973   1
   7  -3   5 11.2012 29.3845   2
  -7   3  -5 68.6416 76.4957   3
  -7   3  -5 0.30833 30.2932   1
   7  -3   6 2755.53 129.620   2
  -7  -3  -6 3857.60 383.726   1
  -7   3  -6 3539.55 322.049   3
  -7   3  -6 3108.74 265.314   1
  -7   3  -7 118.513 90.3682   3
  -7   3  -7 65.9846 52.1563   1
  -7  -3  -7-36.6044 55.0933   1
  -7   3  -8 740.557 161.254   3
  -7  -3  -8 767.241 179.093   1
  -7   3  -8 731.798 155.198   1
  -7   3  -9 122.550 92.4384   3
  -7   3  -9 230.170 98.4223   1
  -7  -3  -9 224.729 138.677   1
  -7   3 -10-64.5379 74.3012   3
  -7   3 -10 148.176 78.0655   1
  -7  -3 -10 221.396 109.948   1
  -7   3 -11 74.9739 101.317   3
  -7  -3 -11 174.594 111.756   1
  -7   3 -11 98.0832 97.4363   1
  -7  -3 -11 245.144 134.682   3
  -7  -3 -12 535.410 227.635   3
  -7  -3 -12-21.5257 74.5374   1
  -7   3 -12 368.820 147.109   3
  -7   3 -12 46.7957 77.6179   1
  -7  -3 -13 64.0494 82.3128   1
  -7   3 -13 119.154 98.5003   3
  -7   3 -13 212.375 113.818   1
  -7  -3 -13 352.620 158.817   3
  -7  -3 -14 210.572 116.268   1
  -7   3 -14 62.9626 103.541   3
  -7   3 -14 159.951 112.306   1
  -7  -3 -15-4.33511 71.5052   1
  -7   3 -15-2.99411 69.8211   3
  -7   3 -15 116.998 117.249   1
   7   4 -13 109.265 119.159   4
   7  -4 -13-70.2045 100.597   2
   7  -4 -12 230.839 117.124   2
   7   4 -12 5.14541 118.061   4
   7   4 -11 360.532 146.776   2
   7  -4 -11 145.031 125.065   2
   7   4 -11 354.799 201.256   4
   7  -4 -10 203.768 110.381   2
   7   4 -10-36.3462 77.5788   4
   7  -4  -9 1097.72 237.416   2
   7   4  -9 639.801 213.020   4
   7  -4  -8 152.980 104.049   2
   7   4  -8 1.40730 70.2201   4
   7  -4  -7 521.740 157.603   2
   7   4  -7 898.743 243.541   4
   7  -4  -6 84.5850 68.2775   2
   7   4  -6 223.711 129.699   4
   7  -4  -5 119.941 95.3698   2
   7   4  -5 123.711 77.4672   4
   7  -4  -4 225.361 93.7332   2
  -7   4   4 179.364 65.1553   3
   7   4  -4 67.7853 85.8412   4
  -7   4   3 212.169 63.8993   3
   7   4  -3 365.054 134.250   4
  -7   4   2 1806.80 187.147   3
  -7  -4   2 1583.78 312.011   1
   7   4  -2 1685.32 316.155   4
   7  -4  -2 2351.56 268.504   2
  -7   4   1 850.658 134.785   3
  -7  -4   1 1266.69 286.958   1
   7  -4  -1 1472.18 205.165   2
   7  -4   0 299.757 90.7962   2
  -7   4   0 303.211 95.6119   3
  -7  -4  -1 501.580 177.628   1
   7  -4   1 480.499 111.404   2
  -7   4  -1 218.036 70.9792   3
  -7   4  -2 961.841 165.839   3
  -7  -4  -2 1402.54 270.552   1
   7  -4   2 1616.32 184.111   2
   7  -4   3 662.515 117.104   2
  -7   4  -3 628.433 143.656   3
  -7   4  -3 354.279 82.2367   1
  -7  -4  -3 461.355 171.534   1
  -7   4  -4 334.455 119.531   3
  -7   4  -4 266.916 89.3473   1
  -7  -4  -4 440.525 160.758   1
  -7   4  -5 83.5196 48.7441   3
  -7   4  -5 20.5619 50.1690   1
  -7  -4  -5-18.5643 86.0566   1
  -7  -4  -6 241.436 116.280   1
  -7   4  -6 209.433 101.384   3
  -7   4  -6 139.069 69.6064   1
  -7  -4  -7 98.5140 83.5036   1
  -7   4  -7 7.33442 60.8422   3
  -7   4  -7 80.0245 53.0336   1
  -7  -4  -8 26.6905 84.3592   1
  -7   4  -8 115.029 100.253   3
  -7  -4  -9 183.980 138.691   1
  -7   4  -9 147.395 94.8457   3
  -7   4 -10 360.849 132.260   3
  -7  -4 -10 512.135 174.482   1
  -7   4 -11 42.9397 96.5467   3
  -7   4 -11 132.954 111.763   1
  -7  -4 -11 122.881 123.338   1
  -7   4 -12 225.086 119.879   3
  -7   4 -12 109.416 102.189   1
  -7  -4 -12 327.844 173.928   1
   7  -5  -8 302.177 140.311   2
   7   5  -8 115.115 128.365   4
   7  -5  -7 83.5588 107.074   2
   7   5  -7 100.842 123.651   4
   7  -5  -6 224.411 128.374   2
   7   5  -6 311.764 174.717   4
   7  -5  -5 22.7023 73.6393   2
   7   5  -5-48.1552 82.3172   4
   7  -5  -4 102.460 87.5824   2
   7   5  -4 273.512 202.383   4
   7  -5  -3 73.7739 83.2818   2
   7   5  -3 47.6934 83.0275   4
   7  -5  -2 429.406 138.181   2
   7   5  -2 648.709 215.296   4
   7  -5  -1 374.601 131.735   2
   7  -5   0 124.257 95.0297   2
  -7   5  -1 120.072 79.5693   3
   7  -5   1-5.89268 51.6449   2
  -7  -5  -1 229.019 151.119   1
  -7   5  -2 44.6396 54.6629   3
  -7  -5  -2-23.4305 97.5979   1
  -7   5  -3-73.6998 53.3910   3
  -7  -5  -3 77.4015 105.729   1
  -7   5  -4 662.814 159.179   3
  -7  -5  -4 798.876 235.116   1
  -7  -5  -5 328.795 211.297   1
  -7   5  -5 198.261 103.393   3
  -7  -5  -6-27.8930 94.1108   1
  -7   5  -6 150.004 94.5107   3
  -7   5  -7 137.302 108.553   3
  -7  -5  -7-1.06277 99.2596   1
   8   0 -18-18.0713 95.3854   4
   8   0 -18 94.3742 113.022   2
   8   0 -17-111.344 93.7835   4
   8   0 -17 10.3496 84.2272   2
   8   0 -16 17569.0 954.120   4
   8   0 -16 17261.5 937.808   2
   8   0 -15-75.3994 99.8132   4
   8   0 -15 32.7605 95.0983   2
   8   0 -14 1918.42 317.706   4
   8   0 -14 2486.28 365.040   2
   8   0 -13 42.1456 74.3891   4
   8   0 -13-94.7083 90.6105   2
   8   0 -12 1052.93 222.583   4
   8   0 -12 774.907 196.258   2
   8   0 -11 25.6054 91.6103   4
   8   0 -11 218.143 132.134   2
   8   0 -10 63.9548 77.5416   4
   8   0 -10-13.7618 50.2516   2
   8   0  -9 49.5200 95.4698   4
   8   0  -9-5.52620 56.9731   2
   8   0  -8 5353.78 447.909   2
   8   0  -8 5547.70 433.527   4
   8   0  -7-61.9966 66.2205   4
   8   0  -7-42.3314 65.5175   2
   8   0  -6 22836.9 879.373   2
   8   0  -6 23562.6 860.564   4
   8   0  -5 17.4772 58.5633   2
   8   0  -5-54.7985 58.9171   4
  -8   0   4 17197.8 687.056   1
   8   0  -4 16576.6 727.849   2
   8   0  -4 16730.0 665.646   4
  -8   0   3-17.0554 32.6023   1
   8   0  -3-4.94000 51.8224   1
   8   0  -3 22.6863 37.1628   4
   8   0  -2 34039.9 836.077   1
  -8   0   2 35642.9 899.902   1
  -8   0   2 33784.2 919.893   3
   8   0  -2 35252.2 927.977   4
  -8   0   1-25.7496 40.5674   1
   8   0  -1 30.1748 50.7901   1
  -8   0   1 5.06988 33.5676   3
   8   0  -1-66.4762 50.9357   4
  -8   0   0 3123.88 246.840   1
  -8   0   0 3388.06 286.828   3
  -8   0  -1-40.2038 47.0102   3
  -8   0  -1-10.9592 31.9588   1
  -8   0  -2 11659.5 465.338   1
  -8   0  -2 11140.4 493.444   3
  -8   0  -3 72.5006 56.6922   1
  -8   0  -3 121.199 74.1202   3
  -8   0  -4 380.180 92.5992   1
  -8   0  -4 433.195 108.147   3
  -8   0  -5-16.4767 40.9095   1
  -8   0  -5 11.9140 43.4776   3
  -8   0  -6 1110.75 166.497   3
  -8   0  -6 1209.74 168.168   1
  -8   0  -7 28.1237 55.5376   1
  -8   0  -7 61.7119 36.9135   3
  -8   0  -8 18008.1 674.493   3
  -8   0  -8 17227.5 646.721   1
  -8   0  -9 10.4502 46.8551   3
  -8   0  -9-31.6757 35.9453   1
  -8   0 -10 1205.71 187.307   3
  -8   0 -10 1150.36 193.478   1
  -8   0 -11 56.0980 46.8315   3
  -8   0 -11 33.2460 64.4421   1
  -8   0 -12 185.596 86.2368   3
  -8   0 -12-67.5562 66.2741   1
  -8   0 -13 119.115 68.1740   3
  -8   0 -13 64.7495 88.5914   1
  -8   0 -14 133.087 105.002   3
  -8   0 -14 143.036 85.9389   1
  -8   0 -15-53.8332 95.3032   3
  -8   0 -15 23.5672 79.0870   1
  -8   0 -16 261.018 102.485   3
  -8   0 -16 360.515 146.557   1
  -8   0 -17 70.7440 62.5095   3
  -8   0 -17 194.383 86.0633   1
   8   1 -18 467.696 277.613   4
   8  -1 -18 212.871 135.289   4
   8   1 -18 240.676 145.115   2
   8  -1 -18 17.9077 75.2701   2
   8  -1 -17 1711.72 319.462   2
   8   1 -17 1646.70 327.766   4
   8   1 -17 1413.25 282.317   2
   8  -1 -17 1232.63 261.465   4
   8   1 -16 751.977 232.336   4
   8   1 -16 1912.31 324.226   2
   8  -1 -16 1708.75 284.256   4
   8  -1 -16 1334.68 277.246   2
   8   1 -15 73.9202 116.658   4
   8  -1 -15 44.4482 83.6764   4
   8   1 -15 48.4190 95.0159   2
   8  -1 -15 295.714 160.001   2
   8   1 -14 153.534 133.677   4
   8  -1 -14 192.645 125.133   4
   8   1 -14 178.520 123.600   2
   8  -1 -14 357.821 152.811   2
   8   1 -13 479.685 170.177   4
   8  -1 -13 663.640 162.055   4
   8   1 -13 516.042 160.386   2
   8  -1 -13 711.825 165.606   2
   8   1 -12 8805.19 643.685   2
   8   1 -12 8688.31 649.102   4
   8  -1 -12 8412.98 558.532   4
   8  -1 -12 9189.44 635.129   2
   8   1 -11 5158.83 468.425   2
   8   1 -11 5587.76 501.906   4
   8  -1 -11 4932.85 422.718   4
   8  -1 -11 5569.07 504.470   2
   8   1 -10 13201.9 742.199   2
   8   1 -10 12973.7 745.459   4
   8  -1 -10 13306.8 675.695   4
   8  -1 -10 14164.2 762.373   2
   8   1  -9 2109.38 302.873   4
   8  -1  -9 2584.86 289.858   4
   8   1  -9 2927.02 345.132   2
   8  -1  -9 2847.79 335.815   2
   8  -1  -8 1929.36 213.560   1
   8   1  -8 1918.35 286.785   2
   8   1  -8 1915.62 290.845   4
   8  -1  -8 1917.20 262.713   2
   8  -1  -8 1599.79 217.211   4
   8  -1  -7 3039.68 253.829   1
   8   1  -7 2742.43 318.544   2
   8  -1  -7 2988.90 329.508   2
   8  -1  -7 3240.02 303.474   4
   8   1  -7 3052.62 345.522   4
   8  -1  -6 6178.40 352.887   1
   8  -1  -6 5449.04 442.852   2
   8  -1  -6 6155.26 397.273   4
   8   1  -6 7031.89 507.117   4
   8  -1  -5 3632.39 239.306   1
   8   1  -5 3884.10 368.084   4
   8  -1  -5 3679.14 381.004   2
   8  -1  -5 3260.15 285.313   4
   8  -1  -4 6609.33 307.571   1
  -8   1   4 5520.85 352.075   3
  -8  -1   4 6406.91 465.817   1
   8   1  -4 6787.72 475.158   4
   8  -1  -4 6953.14 470.957   2
   8  -1  -4 6360.20 364.956   4
  -8   1   3 1040.08 159.543   3
  -8  -1   3 743.612 162.070   1
  -8   1   3 883.895 141.494   1
  -8   1   3 803.367 143.508   4
   8   1  -3 677.011 166.892   4
   8  -1  -3 778.050 160.028   2
   8  -1  -3 748.281 122.273   4
   8  -1  -3 841.128 110.011   1
  -8   1   2 27416.1 705.956   1
  -8  -1   2 24170.0 838.560   1
  -8   1   2 26560.7 759.580   3
  -8   1   2 25448.5 710.594   4
   8   1  -2 25734.8 891.751   4
   8  -1  -2 25558.7 837.033   2
   8  -1  -2 24998.0 674.387   4
   8  -1  -2 25759.2 575.193   1
  -8   1   1 7777.10 354.889   1
  -8  -1   1 7905.29 468.047   1
  -8   1   1 7727.05 394.476   3
   8  -1  -1 7111.65 433.404   2
   8  -1  -1 7729.38 350.127   4
   8  -1  -1 7063.81 299.606   1
   8   1  -1 7556.69 483.664   4
  -8   1   0 1338.38 144.094   1
  -8  -1   0 1227.34 182.323   1
  -8   1   0 1512.06 175.978   3
  -8  -1   0 1202.59 196.262   3
   8  -1   0 1389.71 188.278   2
   8  -1   0 1408.48 144.878   4
   8  -1   0 1169.30 126.440   1
  -8   1  -1 14214.1 446.158   1
  -8  -1  -1 15962.2 630.723   1
  -8   1  -1 16467.0 583.462   3
  -8  -1  -1 15683.7 662.600   3
   8  -1   1 15801.9 597.642   2
   8  -1   1 15796.6 462.787   4
   8  -1   1 15528.5 485.113   1
  -8   1  -2 70.3360 37.9721   1
   8  -1   2 28.4881 43.8866   1
  -8   1  -2 104.862 51.7089   3
  -8  -1  -2 113.016 59.6450   3
  -8  -1  -2 49.6475 48.9022   1
   8  -1   2 56.2756 33.8300   4
  -8   1  -3 1489.94 179.703   3
  -8  -1  -3 1759.92 229.745   3
  -8  -1  -3 1775.25 212.331   1
  -8   1  -3 1592.83 158.871   1
  -8  -1  -4 2021.05 223.904   1
  -8   1  -4 1766.70 197.579   3
  -8  -1  -4 1524.26 213.192   3
  -8   1  -4 1845.32 179.531   1
  -8  -1  -5 5492.04 367.656   1
  -8   1  -5 6359.08 386.185   3
  -8  -1  -5 6781.76 431.616   3
  -8   1  -5 6957.86 349.792   1
  -8   1  -6 11035.1 521.361   3
  -8  -1  -6 10863.0 533.783   3
  -8   1  -6 11540.3 472.734   1
   8  -1   6 9856.89 363.846   4
   8  -1   7 124.347 54.7044   4
  -8  -1  -7 134.246 78.6079   1
  -8   1  -7 43.5617 48.4173   3
  -8  -1  -7-28.1924 57.6875   3
  -8   1  -7 46.6985 33.2032   1
   8  -1   8 489.572 104.535   2
   8  -1   8 457.584 97.5480   4
  -8   1  -8 715.641 152.608   3
  -8  -1  -8 984.232 169.701   3
  -8   1  -8 756.999 135.647   1
  -8  -1  -8 637.749 136.579   1
  -8  -1  -9 10.2166 51.0096   1
  -8   1  -9-17.0226 45.5604   3
  -8  -1  -9 57.9400 83.3738   3
   8  -1   9-27.0617 48.4221   2
  -8   1  -9 40.0246 37.8891   1
  -8  -1 -10 89.6482 73.2032   1
  -8   1 -10 276.240 105.865   3
   8  -1  10 51.6310 46.9029   2
  -8  -1 -10 26.5442 53.6393   3
  -8   1 -10 133.670 83.4306   1
  -8  -1 -11 167.835 89.7117   1
  -8   1 -11 390.510 137.586   3
  -8  -1 -11 181.797 74.8069   3
  -8   1 -11 334.106 117.521   1
  -8   1 -12 4146.52 382.646   3
  -8  -1 -12 3832.17 361.123   3
  -8  -1 -12 3720.29 363.602   1
  -8   1 -12 4255.46 372.700   1
  -8   1 -13 1058.16 196.544   3
  -8  -1 -13 1294.06 215.639   3
  -8   1 -13 1461.23 232.302   1
  -8  -1 -14 62.8445 69.5143   1
  -8   1 -14-39.3912 96.2547   3
  -8  -1 -14-29.7498 68.3760   3
  -8   1 -14 16.8095 83.1957   1
  -8  -1 -15 126.783 111.325   1
  -8   1 -15 439.494 151.073   3
  -8  -1 -15 281.497 123.404   3
  -8   1 -15 11.6208 53.9773   1
  -8   1 -16 114.711 92.0848   3
  -8  -1 -16-30.9205 77.9815   3
  -8   1 -16-25.7458 86.0014   1
  -8  -1 -16 262.131 122.502   1
  -8   1 -17 166.280 137.324   3
  -8  -1 -17 224.912 131.741   3
  -8   1 -17-51.2145 82.4672   1
  -8  -1 -17 152.401 130.136   1
   8   2 -17 41.5697 112.952   4
   8  -2 -17 113.394 136.692   4
   8   2 -17 62.8255 98.7478   2
   8  -2 -17 79.5815 121.867   2
   8   2 -16 247.666 113.075   4
   8  -2 -16 381.862 165.535   4
   8   2 -16 389.786 161.606   2
   8  -2 -16 447.734 188.924   2
   8   2 -15 172.439 133.429   4
   8  -2 -15 15.4411 94.1585   4
   8   2 -15 118.602 103.805   2
   8  -2 -15-0.47760 61.5130   2
   8   2 -14-62.3297 78.1191   4
   8  -2 -14 89.8765 89.6943   4
   8   2 -14 29.6573 86.1043   2
   8  -2 -14 24.7840 87.4283   2
   8  -2 -13 110.333 82.0763   4
   8   2 -13 205.766 133.481   2
   8  -2 -13 186.858 118.822   2
   8   2 -12 95.0350 117.746   4
   8  -2 -12 12.4758 53.6926   4
   8   2 -12 135.665 122.521   2
   8  -2 -12 21.7234 76.1646   2
   8  -2 -11 509.057 128.013   4
   8   2 -11 415.255 153.281   2
   8  -2 -11 544.877 167.866   2
   8   2 -11 789.986 203.486   4
   8  -2 -10 333.102 88.7166   1
   8   2 -10 425.723 164.260   2
   8  -2 -10 398.737 161.313   2
   8  -2 -10 736.926 161.954   4
   8   2 -10 592.507 183.045   4
   8  -2  -9 6586.40 325.248   1
   8  -2  -9 7598.01 390.963   3
   8   2  -9 6061.20 514.326   2
   8   2  -9 5878.42 526.622   4
   8  -2  -9 6212.07 421.846   4
   8  -2  -9 6709.84 532.794   2
   8  -2  -8 22107.6 532.640   1
   8  -2  -8 24041.5 664.043   3
   8   2  -8 21831.5 990.658   4
   8  -2  -8 23003.7 785.356   4
   8  -2  -8 22032.1 933.759   2
   8  -2  -7 25.6618 53.7610   4
   8  -2  -7 9.88907 71.3821   2
   8  -2  -7 24.1702 38.4382   3
   8  -2  -7 8.10617 21.7868   1
   8   2  -7 104.406 83.7150   4
   8  -2  -6 1092.97 147.000   3
   8  -2  -6 1332.33 178.457   4
   8  -2  -6 1051.44 209.721   2
   8   2  -6 899.484 201.370   4
   8  -2  -6 1242.91 86.6913   1
   8  -2  -5 104.810 46.3865   4
   8  -2  -5 114.486 68.0579   2
   8  -2  -5 73.6429 52.1330   3
  -8   2   5 53.7517 54.0624   3
   8  -2  -5 131.102 25.4840   1
   8   2  -5 118.295 81.4793   4
   8  -2  -4 131.726 58.8612   4
   8  -2  -4 40.3069 16.7685   1
  -8  -2   4 103.263 74.9139   1
  -8   2   4 45.8929 43.2602   3
   8   2  -4 63.6861 110.568   4
  -8   2   4 216.307 95.8793   4
   8  -2  -3 136.555 63.4644   4
  -8  -2   3-65.1208 81.5921   1
   8  -2  -3 2.03312 52.5038   2
  -8   2   3 109.555 42.5122   3
   8   2  -3 111.094 61.3035   4
  -8   2   3 140.797 71.5655   4
  -8   2   2 9600.67 427.776   4
  -8   2   2 9650.01 417.270   3
  -8   2   2 8773.45 311.484   1
  -8  -2   2 8865.93 563.919   1
   8   2  -2 9506.74 591.563   4
   8  -2  -2 10225.9 547.055   2
   8  -2  -2 10242.8 367.160   4
  -8   2   1 3359.75 192.931   1
  -8   2   1 2990.65 243.009   3
  -8  -2   1 2930.76 321.868   1
   8  -2  -1 3487.10 305.877   2
   8  -2  -1 3664.20 197.384   4
  -8   2   0 3346.12 192.025   1
  -8  -2   0 3107.53 330.325   1
  -8   2   0 3441.43 259.801   3
   8  -2   0 3525.23 306.456   2
   8  -2   0 3037.91 157.858   4
  -8  -2  -1 9391.86 569.730   1
  -8   2  -1 8961.42 418.427   3
   8  -2   1 9226.33 474.810   2
  -8   2  -1 8871.83 320.656   1
  -8  -2  -2 1442.25 225.815   1
  -8   2  -2 1562.20 180.756   3
   8  -2   2 1333.99 179.865   2
  -8   2  -2 1229.91 124.122   1
   8  -2   3 142.617 76.5212   2
  -8   2  -3 174.405 69.5483   3
  -8   2  -3 117.646 54.6185   1
  -8  -2  -3 74.6260 75.7711   1
  -8  -2  -4 2001.85 252.238   1
  -8   2  -4 1361.47 180.539   3
  -8  -2  -4 1804.64 251.276   3
   8  -2   4 2240.45 219.498   2
  -8   2  -4 1548.74 151.800   1
  -8  -2  -5 5562.48 421.149   1
  -8   2  -5 5462.70 375.302   3
  -8  -2  -5 5566.73 450.492   3
   8  -2   5 6067.83 338.438   2
  -8   2  -5 4652.59 287.560   1
   8  -2   6 139.651 56.2950   2
  -8   2  -6 151.188 79.4926   3
  -8  -2  -6 159.884 92.4492   1
  -8  -2  -6 172.413 100.695   3
  -8   2  -6 61.1774 50.0751   1
  -8  -2  -7 771.976 169.759   1
  -8   2  -7 617.109 143.913   3
   8  -2   7 751.748 118.855   2
  -8  -2  -7 950.568 193.799   3
   8  -2   7 320.405 54.5789   4
  -8   2  -7 573.275 118.565   1
   8  -2   8 27.4730 38.8067   4
   8  -2   8 171.023 60.6641   2
  -8  -2  -8-30.8691 57.1736   1
  -8   2  -8-6.68981 40.1898   3
  -8  -2  -8 30.2307 53.2010   3
   8  -2   8-9.97121 25.8009   2
  -8   2  -8 31.2684 63.3974   1
   8  -2   9 584.060 95.5208   4
   8  -2   9 682.330 81.7682   2
  -8  -2  -9 1194.22 202.928   1
  -8   2  -9 784.156 167.718   3
  -8  -2  -9 1123.61 212.553   3
  -8   2  -9 1100.13 175.603   1
   8  -2   9 715.777 104.776   2
   8  -2  10 103.583 46.1554   2
  -8  -2 -10 117.101 85.2329   1
  -8   2 -10 130.763 82.1595   3
  -8  -2 -10 94.8596 81.7112   3
  -8   2 -10-19.6946 57.4310   1
  -8  -2 -11 142.835 92.9719   1
  -8   2 -11-27.8706 54.2032   3
  -8  -2 -11 203.563 103.677   3
  -8   2 -11 151.324 80.4156   1
  -8  -2 -12 580.896 156.405   1
  -8   2 -12 461.215 140.343   3
  -8  -2 -12 274.678 108.987   3
  -8   2 -12 320.467 121.056   1
  -8  -2 -13 140.448 86.6713   1
  -8   2 -13 115.658 101.989   3
  -8  -2 -13 51.5038 73.4066   3
  -8   2 -13 181.255 103.123   1
  -8  -2 -14 124.951 99.7307   1
  -8   2 -14 69.1003 86.5062   3
  -8  -2 -14 64.8077 73.2502   3
  -8   2 -14 129.817 122.559   1
  -8  -2 -15 763.861 200.975   1
  -8   2 -15 580.136 169.547   3
  -8  -2 -15 588.052 166.006   3
  -8   2 -15 356.332 134.014   1
  -8  -2 -16 245.488 128.761   1
  -8   2 -16 48.3427 98.7614   3
  -8  -2 -16-14.5923 86.2511   3
  -8   2 -16 86.5992 100.212   1
   8   3 -15 280.889 165.011   4
   8  -3 -15 345.516 138.327   4
   8   3 -15 254.471 152.130   2
   8  -3 -15 301.414 127.530   2
   8   3 -14 439.278 199.408   4
   8  -3 -14 429.661 152.100   4
   8   3 -14 133.603 121.454   2
   8  -3 -14 189.358 105.133   2
   8   3 -13 166.129 116.908   4
   8  -3 -13-37.0745 58.5153   4
   8   3 -13 45.2069 94.2167   2
   8  -3 -13-0.90161 65.4890   2
   8   3 -12 477.561 163.061   2
   8  -3 -12 355.364 131.158   4
   8  -3 -12 160.965 101.113   2
   8   3 -11 107.693 115.831   2
   8  -3 -11 149.640 88.4776   4
   8  -3 -11 109.128 97.0140   2
   8   3 -11 72.8625 88.3873   4
   8  -3 -10 32.6702 58.9395   4
   8  -3 -10-59.6033 81.4982   2
   8   3 -10 65.3784 85.2878   4
   8  -3  -9 194.712 96.5273   4
   8  -3  -9 21.1654 74.2987   2
   8   3  -9 134.442 122.852   4
   8  -3  -8 978.533 212.470   2
   8  -3  -8 992.480 170.699   4
   8   3  -8 930.110 219.555   4
   8   3  -7 2787.35 391.311   4
   8  -3  -7 3177.63 294.917   4
   8  -3  -7 3050.78 356.748   2
   8  -3  -6 198.243 79.1597   4
   8  -3  -6 147.775 109.480   2
   8   3  -6 80.6876 109.166   4
   8  -3  -5 22188.2 672.932   3
  -8   3   5 23458.7 692.390   3
   8   3  -5 24428.7 1071.02   4
   8  -3  -4 8393.15 538.391   2
  -8   3   4 8139.80 395.617   3
   8   3  -4 8076.84 610.002   4
  -8   3   3 4474.90 287.907   3
  -8  -3   3 6474.76 576.070   1
   8   3  -3 5248.62 491.200   4
  -8   3   3 5429.40 335.113   4
   8  -3  -3 6627.24 470.237   2
  -8  -3   2 177.681 116.803   1
   8  -3  -2 328.029 112.320   2
  -8   3   2 86.0945 49.0292   3
   8   3  -2 275.069 122.174   4
  -8   3   2 117.828 54.8312   4
  -8   3   1 576.830 110.304   3
  -8  -3   1 962.991 210.398   1
  -8   3   1 611.333 83.1068   4
   8  -3  -1 1069.98 183.878   2
  -8  -3   0 52.0314 72.8063   1
   8  -3   0 7.42317 47.0513   2
  -8   3   0-1.71160 14.5408   1
  -8   3   0 34.7159 48.1812   3
  -8   3  -1 236.580 50.5383   1
   8  -3   1 310.357 99.4869   2
  -8   3  -1 425.344 106.838   3
  -8  -3  -1 291.731 136.369   1
   8  -3   2 10.6503 35.6096   2
  -8   3  -2 71.6823 46.0913   3
  -8  -3  -2 52.4502 90.3083   1
  -8   3  -2 13.3657 20.9581   1
   8  -3   3 196.763 67.9886   2
  -8  -3  -3 315.252 139.842   1
  -8   3  -3 252.725 90.3089   3
  -8   3  -3 134.736 46.9513   1
  -8  -3  -4 395.425 146.497   1
   8  -3   4 478.846 100.834   2
  -8   3  -4 355.136 96.0287   3
  -8   3  -4 280.427 75.9834   1
  -8  -3  -5 1609.60 269.990   1
  -8   3  -5 1580.92 223.040   3
   8  -3   5 1776.78 165.397   2
  -8   3  -5 1627.18 174.657   1
   8  -3   6 324.339 59.9676   2
  -8   3  -6 259.608 108.332   3
  -8   3  -6 492.939 114.955   1
  -8  -3  -6 253.952 124.430   1
   8  -3   7 102.733 25.1099   2
  -8   3  -7 319.307 114.187   3
  -8   3  -7 170.499 73.8950   1
  -8  -3  -7 274.845 129.409   1
  -8   3  -8 215.985 99.3460   3
  -8  -3  -8 163.260 109.779   1
  -8   3  -9 6.75406 76.0511   3
  -8   3  -9-57.9486 53.1288   1
  -8  -3  -9 84.6837 72.6922   1
  -8   3 -10 66.2897 75.6721   3
  -8  -3 -10 119.956 105.745   1
  -8   3 -10-14.4099 62.2518   1
  -8  -3 -10 134.884 123.864   3
  -8   3 -11 21.3524 76.5593   3
  -8  -3 -11 47.3002 79.2244   1
  -8   3 -11-41.0786 64.0589   1
  -8  -3 -11-68.9300 73.3505   3
  -8  -3 -12 66.0971 97.7739   1
  -8   3 -12 3.65113 81.1328   3
  -8   3 -12 6.19308 77.8790   1
  -8  -3 -12 33.7872 110.665   3
  -8  -3 -13 684.812 220.281   1
  -8   3 -13 513.845 175.168   3
  -8   3 -13 455.472 139.984   1
  -8  -3 -13 492.391 175.205   3
  -8  -3 -14 56.6270 62.7445   1
  -8   3 -14 164.262 111.389   3
  -8   3 -14-68.6222 79.7657   1
  -8  -3 -14 105.468 96.2544   3
   8  -4 -12 376.771 152.842   2
   8   4 -12 1493.24 345.009   4
   8  -4 -11 75.9521 100.983   2
   8   4 -11 318.510 227.185   4
   8  -4 -10 374.876 148.066   2
   8   4 -10 125.212 100.930   4
   8   4  -9 1431.50 307.496   4
   8  -4  -9 1594.05 290.969   2
   8  -4  -8 276.725 133.516   2
   8   4  -8 468.089 208.745   4
   8  -4  -7 42.3513 66.0902   2
   8   4  -7 124.590 99.2848   4
   8  -4  -6-90.1179 100.616   2
   8   4  -6-18.9160 106.246   4
   8  -4  -5 294.961 137.054   2
   8   4  -5 3.31285 66.8453   4
  -8   4   4 1106.36 148.967   3
   8   4  -4 2010.81 342.250   4
   8  -4  -4 2030.23 288.038   2
   8  -4  -3 145.614 91.5952   2
  -8   4   3 291.427 80.2718   3
   8   4  -3 343.980 162.582   4
  -8   4   2 611.187 131.629   3
  -8  -4   2 581.192 211.096   1
   8   4  -2 476.973 169.879   4
   8  -4  -2 1083.70 203.651   2
  -8  -4   1 4861.77 543.278   1
   8  -4  -1 4996.40 391.661   2
  -8  -4   0 103.171 120.836   1
   8  -4   0 123.719 71.1140   2
  -8   4   0 64.9484 47.0851   3
   8  -4   1 231.923 81.1985   2
  -8   4  -1 222.866 87.3292   3
  -8  -4  -1 251.222 132.908   1
  -8  -4  -2 320.598 138.235   1
   8  -4   2 393.187 108.399   2
  -8   4  -2 244.068 85.4344   3
   8  -4   3 301.926 85.8824   2
  -8   4  -3 233.363 98.2950   3
  -8  -4  -3 347.565 135.381   1
  -8   4  -4-74.3407 67.7937   3
   8  -4   4-4.57197 33.7162   2
  -8   4  -5 153.227 79.6099   3
  -8  -4  -5 56.9799 85.5826   1
  -8   4  -5 199.453 87.8335   1
  -8  -4  -6 467.699 186.675   1
  -8   4  -6 333.800 120.984   3
  -8   4  -6 496.824 103.429   1
  -8  -4  -7 333.364 163.290   1
  -8   4  -7 268.399 114.539   3
  -8   4  -7 197.963 82.2312   1
  -8  -4  -8 268.009 143.373   1
  -8   4  -8 11.2332 63.1954   3
  -8   4  -8 164.514 82.7286   1
  -8  -4  -9 167.762 134.744   1
  -8   4  -9 158.135 109.978   3
  -8   4  -9-4.43220 55.4206   1
  -8   4 -10 77.3130 97.9294   3
  -8   4 -10 50.4573 72.7488   1
  -8  -4 -10 179.728 130.070   1
  -8   4 -11 119.711 127.464   3
  -8   4 -11-2.17143 65.6604   1
  -8  -4 -11 162.880 129.646   1
   8  -5  -6 280.534 148.110   2
   8   5  -6 537.934 221.354   4
   8  -5  -5 74.1433 99.7778   2
   8   5  -5 97.8132 139.718   4
   8  -5  -4 319.012 131.729   2
   8   5  -4 379.031 171.266   4
   8  -5  -3 40.1041 80.6291   2
   8   5  -3 42.8133 132.181   4
   8  -5  -2 192.920 99.4891   2
   8   5  -2 273.118 199.598   4
   8  -5  -1 246.109 100.824   2
   8   5  -1 177.160 144.790   4
   8  -5   0 37.7689 74.8223   2
  -8  -5   0 245.915 192.305   1
  -8  -5  -1 653.672 251.009   1
  -8   5  -1 144.379 93.5864   3
  -8  -5  -2 1483.39 326.362   1
  -8   5  -2 668.851 150.524   3
  -8   5  -3-9.73087 68.2099   3
  -8  -5  -3 428.520 218.189   1
  -8   5  -4 152.253 115.742   3
  -8  -5  -4-56.4121 83.0270   1
  -8  -5  -5 149.107 160.616   1
  -8   5  -5 13.1256 56.1356   3
   9   0 -18 102.701 115.007   4
   9   0 -18 185.842 131.845   2
   9   0 -17 20.4594 82.5001   4
   9   0 -17 89.3568 91.7695   2
   9   0 -16-41.4749 97.9910   4
   9   0 -16-25.2548 97.5527   2
   9   0 -15 19465.4 1015.55   4
   9   0 -15 18353.8 1000.81   2
   9   0 -14 92.8979 130.487   4
   9   0 -14-42.6521 81.0647   2
   9   0 -13 10282.7 699.876   4
   9   0 -13 9554.11 682.164   2
   9   0 -12-7.37671 74.2238   4
   9   0 -12 37.2032 80.7869   2
   9   0 -11 2315.32 315.561   2
   9   0 -11 2507.56 327.645   4
   9   0 -10 57.6175 75.0434   4
   9   0 -10 93.1144 111.731   2
   9   0  -9 390.103 135.032   2
   9   0  -9 647.650 193.837   4
   9   0  -8 32.0902 53.0774   4
   9   0  -8 72.0033 88.1226   2
   9   0  -7 2672.56 322.701   2
   9   0  -7 2620.11 312.713   4
   9   0  -6 81.8864 95.3148   2
   9   0  -6 1.13083 44.1237   4
   9   0  -5 9135.26 595.336   2
   9   0  -5 7609.24 486.000   4
   9   0  -4-27.2896 46.8188   2
  -9   0   4 119.794 82.9042   1
   9   0  -4 132.835 80.7612   4
  -9   0   3 848.986 148.460   1
   9   0  -3 943.952 175.148   4
  -9   0   2-39.5329 52.0783   3
  -9   0   2-19.6770 32.6015   1
   9   0  -2-76.1633 78.1982   4
  -9   0   1 6067.10 389.602   1
  -9   0   1 6171.81 425.303   3
   9   0  -1 5857.14 393.913   4
  -9   0   0 6.44254 58.3927   1
  -9   0   0 62.4667 71.6912   3
   9   0   0 22.2455 49.6029   4
   9   0   1 2748.21 261.056   4
  -9   0  -1 2910.30 248.510   1
  -9   0  -1 2908.91 278.147   3
  -9   0  -2 30.5158 57.6397   1
  -9   0  -2 56.6842 64.7850   3
  -9   0  -3 6422.08 364.693   1
  -9   0  -3 6738.93 408.863   3
  -9   0  -4-7.83534 32.5071   1
  -9   0  -4-78.9144 64.9415   3
  -9   0  -5 182.293 62.7976   1
  -9   0  -5 46.4630 59.4512   3
  -9   0  -6 75.2261 56.0976   1
  -9   0  -6-45.3978 59.1913   3
  -9   0  -7 5731.98 412.548   3
  -9   0  -7 5392.52 373.542   1
  -9   0  -8 2.75887 60.7568   1
  -9   0  -8 93.9752 66.1946   3
  -9   0  -9 2976.72 301.864   3
  -9   0  -9 2703.33 283.077   1
  -9   0 -10 62.4833 72.4899   3
  -9   0 -10-15.6400 60.9972   1
  -9   0 -11 50.6974 54.5904   3
  -9   0 -11-8.95356 44.3760   1
  -9   0 -12-61.1920 51.2239   3
  -9   0 -12 7.14663 45.9471   1
  -9   0 -13-9.53634 51.3762   3
  -9   0 -13 244.926 102.260   1
  -9   0 -14 221.957 89.9360   3
  -9   0 -14 59.9611 71.3132   1
  -9   0 -15 101.621 98.1883   3
  -9   0 -15 102.187 109.446   1
  -9   0 -16 204.173 119.105   3
  -9   0 -16 64.9533 91.6426   1
  -9   0 -17 144.475 118.653   3
  -9   0 -17 149.967 119.420   1
   9   1 -18 2168.03 386.065   4
   9  -1 -18 2198.92 347.696   4
   9   1 -18 3216.48 427.050   2
   9  -1 -18 2500.25 415.536   2
   9   1 -17 854.363 240.448   4
   9  -1 -17 776.376 222.787   4
   9  -1 -17 777.888 215.277   2
   9   1 -17 1500.36 305.582   2
   9   1 -16 192.649 133.493   4
   9  -1 -16 140.391 129.382   4
   9   1 -16 212.852 134.524   2
   9  -1 -16-14.0674 73.8522   2
   9   1 -15 213.064 118.545   4
   9  -1 -15 5.21177 105.077   4
   9   1 -15 19.4898 95.1796   2
   9  -1 -15 241.049 155.587   2
   9   1 -14 442.704 168.301   4
   9  -1 -14 171.743 104.680   4
   9   1 -14 272.789 139.820   2
   9  -1 -14 457.650 161.594   2
   9   1 -13 2515.36 354.626   2
   9   1 -13 2340.24 364.218   4
   9  -1 -13 2250.18 309.442   4
   9  -1 -13 2053.24 335.826   2
   9   1 -12 11585.1 763.025   4
   9  -1 -12 11326.4 665.012   4
   9  -1 -12 11621.3 772.339   2
   9   1 -11 27619.7 1128.14   2
   9   1 -11 26448.8 1112.86   4
   9  -1 -11 25960.0 986.836   4
   9  -1 -11 26835.5 1120.63   2
   9   1 -10 1640.21 292.580   2
   9   1 -10 2245.61 324.257   4
   9  -1 -10 1933.11 258.490   4
   9  -1 -10 1317.05 236.483   2
   9   1  -9 1002.58 223.078   2
   9  -1  -9 734.757 182.045   2
   9  -1  -9 842.671 176.047   4
   9   1  -9 843.043 214.633   4
   9  -1  -8 500.207 141.183   4
   9   1  -8 362.852 141.884   2
   9  -1  -8 380.389 136.295   2
   9   1  -8 474.869 185.192   4
   9  -1  -7 49.5634 57.4616   4
   9   1  -7 84.2489 90.4287   2
   9  -1  -7 65.1858 63.2483   1
   9  -1  -7-28.1482 66.4474   2
   9   1  -7 16.7613 50.8685   4
   9  -1  -6 15.7799 37.2266   4
   9  -1  -6 179.668 102.997   2
   9  -1  -6 78.6479 55.8343   1
   9   1  -6 73.8410 92.5990   4
   9  -1  -5 4671.24 296.025   1
  -9  -1   5 4076.10 405.190   1
   9   1  -5 4831.25 437.442   4
   9  -1  -5 3874.02 380.151   2
   9  -1  -5 4681.49 343.240   4
   9  -1  -4 2092.78 180.860   1
  -9   1   4 2337.08 249.630   3
  -9  -1   4 2445.24 310.418   1
  -9   1   4 2843.62 283.310   1
   9   1  -4 1800.94 269.463   4
   9  -1  -4 2454.35 295.942   2
   9  -1  -4 1684.48 213.688   4
  -9   1   3 1955.48 223.868   3
  -9   1   3 1920.38 211.943   1
  -9  -1   3 1985.63 249.534   1
   9   1  -3 1781.69 252.913   4
   9  -1  -3 1345.27 221.708   2
   9  -1  -3 1770.28 198.781   4
   9  -1  -3 1416.49 146.983   1
  -9   1   2 4619.39 311.325   1
  -9  -1   2 4166.54 362.214   1
  -9   1   2 4206.35 330.030   3
   9   1  -2 4198.38 375.477   4
   9  -1  -2 3524.73 339.046   2
   9  -1  -2 4272.86 295.894   4
   9  -1  -2 3679.08 236.495   1
  -9   1   1 4919.96 309.780   1
  -9  -1   1 3986.13 346.406   1
  -9   1   1 5161.63 351.561   3
   9   1  -1 4443.39 373.701   4
   9  -1  -1 4176.05 359.313   2
   9  -1  -1 4289.82 275.644   4
   9  -1  -1 4131.09 252.635   1
  -9   1   0 21111.4 601.459   1
  -9  -1   0 23077.1 855.990   1
  -9   1   0 20146.0 671.610   3
  -9  -1   0 22028.0 840.817   3
   9  -1   0 20894.5 590.416   4
   9  -1   0 19850.5 747.140   2
   9  -1   0 19467.3 557.604   1
  -9   1  -1 1534.12 168.038   1
  -9  -1  -1 1215.29 190.569   1
  -9   1  -1 1433.42 182.689   3
  -9  -1  -1 1460.40 215.897   3
   9  -1   1 1374.94 202.678   2
   9  -1   1 1303.09 145.320   4
   9  -1   1 1425.93 160.487   1
  -9   1  -2 11481.2 439.280   1
  -9  -1  -2 11499.3 554.377   1
  -9   1  -2 10994.1 513.702   3
  -9  -1  -2 12869.0 651.537   3
   9  -1   2 11171.8 417.011   4
  -9   1  -3 272.066 75.2887   1
  -9   1  -3 228.071 87.5463   3
  -9  -1  -3 52.7048 61.7797   3
  -9  -1  -3 234.886 98.4143   1
   9  -1   3 189.503 62.6234   4
  -9  -1  -4 1239.39 192.725   1
  -9   1  -4 1277.90 177.324   3
  -9  -1  -4 999.706 180.667   3
  -9   1  -4 1201.04 148.173   1
  -9  -1  -5 7113.81 450.283   1
  -9   1  -5 7116.11 426.006   3
  -9  -1  -5 7691.55 487.240   3
  -9   1  -5 7503.18 390.365   1
  -9   1  -6 30.6947 47.6931   1
  -9  -1  -6-23.7473 69.3649   1
  -9   1  -6-21.3598 37.3338   3
  -9  -1  -6-27.4696 42.1224   3
  -9  -1  -7 1221.51 198.732   1
  -9   1  -7 1290.29 190.703   3
  -9  -1  -7 1348.02 205.691   3
   9  -1   7 1132.61 140.782   4
  -9   1  -7 1243.93 171.254   1
  -9  -1  -8 599.894 151.616   1
  -9   1  -8 639.480 146.553   3
  -9  -1  -8 290.067 99.3140   3
  -9   1  -8 395.146 109.651   1
  -9  -1  -9 159.551 103.903   1
  -9   1  -9 189.079 82.0760   3
  -9  -1  -9 187.922 70.7715   3
  -9   1  -9 274.346 94.2292   1
  -9  -1 -10-23.6517 54.3803   1
  -9   1 -10 116.015 91.2451   3
  -9  -1 -10 127.688 84.3255   3
  -9   1 -10-69.4206 66.2397   1
  -9  -1 -11 374.729 134.496   1
  -9   1 -11 499.849 148.337   3
  -9  -1 -11 244.756 84.0201   3
  -9   1 -11 303.413 105.105   1
  -9  -1 -12 970.367 205.267   3
  -9   1 -12 1302.84 215.796   1
  -9  -1 -12 1460.25 240.699   1
  -9  -1 -13 593.555 162.475   1
  -9   1 -13 706.267 177.742   3
  -9  -1 -13 502.373 156.053   3
  -9   1 -13 500.835 140.953   1
  -9  -1 -14-101.874 89.7613   1
  -9   1 -14 21.0236 63.1158   3
  -9  -1 -14-60.8198 88.3139   3
  -9   1 -14 76.2438 68.5482   1
  -9  -1 -15 128.612 112.998   1
  -9   1 -15-7.67216 73.6495   3
  -9  -1 -15 7.01477 62.4665   3
  -9   1 -15-40.7915 68.2972   1
  -9  -1 -16 71.5386 98.8989   1
  -9   1 -16 29.0407 74.3542   3
  -9  -1 -16-9.55973 68.6991   3
  -9   1 -16 134.003 95.6818   1
   9   2 -16 224.722 141.345   4
   9  -2 -16 500.281 158.594   4
   9   2 -16 63.9726 69.8082   2
   9  -2 -16 400.522 171.236   2
   9   2 -15-34.2565 79.3540   4
   9  -2 -15 21.8317 63.2433   4
   9   2 -15-49.7998 85.0591   2
   9  -2 -15 6.91579 68.4528   2
   9   2 -14-63.8596 102.449   4
   9  -2 -14 216.453 139.146   4
   9   2 -14 34.8523 80.2635   2
   9  -2 -14 130.077 126.926   2
   9   2 -13 13.4888 76.3760   4
   9  -2 -13 12.6283 62.6027   4
   9   2 -13 113.317 103.925   2
   9  -2 -13-68.3284 60.9251   2
   9   2 -12 889.325 248.706   4
   9   2 -12 409.454 172.240   2
   9  -2 -12 685.584 209.286   2
   9  -2 -12 954.591 193.592   4
   9  -2 -11 141.974 104.357   4
   9   2 -11 1.70988 69.0606   2
   9  -2 -11 51.6527 69.1912   2
   9   2 -11 50.6895 98.2028   4
   9  -2 -10 26.8286 48.4078   4
   9   2 -10-32.4375 83.9873   2
   9  -2 -10 108.313 96.4001   2
   9   2 -10 1.84438 101.357   4
   9  -2  -9 3667.56 240.467   1
   9   2  -9 3649.16 423.961   2
   9  -2  -9 3645.89 335.884   4
   9  -2  -9 3173.68 373.891   2
   9   2  -9 3324.23 422.611   4
   9  -2  -8 21053.3 513.360   1
   9  -2  -8 20885.9 772.562   4
   9  -2  -8 20616.1 941.637   2
   9   2  -8 20000.8 981.924   4
   9  -2  -7 4567.81 211.380   1
   9   2  -7 5126.01 500.085   4
   9  -2  -7 5209.84 372.000   4
   9  -2  -7 5124.82 470.252   2
   9   2  -6 6231.59 552.687   4
   9  -2  -6 5987.16 479.781   2
   9  -2  -6 7035.52 406.586   4
   9  -2  -6 6128.49 221.164   1
   9  -2  -5 96.0279 65.3920   4
   9  -2  -5 46.7440 64.9009   2
  -9   2   5 36.4796 66.1701   3
   9  -2  -5 39.8002 22.2768   1
   9   2  -5 110.194 84.9988   4
  -9   2   4 10116.7 491.272   3
  -9  -2   4 10493.8 686.189   1
   9   2  -4 9031.54 622.097   4
   9  -2  -4 8233.92 246.039   1
   9  -2  -4 9279.28 563.638   2
   9  -2  -4 10242.7 448.056   4
  -9   2   3 20961.4 688.529   3
  -9  -2   3 21225.1 954.599   1
   9  -2  -3 18283.6 402.607   1
   9   2  -3 18462.0 870.341   4
   9  -2  -3 20043.0 806.247   2
   9  -2  -3 22900.6 633.725   4
  -9   2   3 21902.7 734.902   4
   9  -2  -2 40.7988 41.8025   4
  -9   2   2 88.8934 47.7508   1
   9  -2  -2-95.0512 73.6981   2
  -9  -2   2 82.1173 112.061   1
  -9   2   2-44.5722 32.4296   3
  -9   2   2-6.85922 42.7792   4
   9   2  -2 86.0365 87.4749   4
  -9  -2   1 217.856 127.236   1
   9  -2  -1 70.0683 39.2003   4
  -9   2   1 247.099 75.5491   1
   9  -2  -1 109.444 73.9468   2
  -9   2   1 31.4679 51.2097   3
   9  -2   0 159.020 48.3614   4
   9  -2   0 233.615 90.0102   2
  -9   2   0 202.776 71.5993   3
  -9  -2   0 65.8471 56.8682   1
  -9   2   0 211.074 62.7859   1
  -9   2  -1 485.665 80.6681   1
   9  -2   1 373.709 111.879   2
  -9  -2  -1 577.243 153.056   1
  -9   2  -1 422.181 111.006   3
   9  -2   1 398.788 58.7909   4
  -9  -2  -2 5023.08 426.290   1
  -9   2  -2 4402.22 329.662   3
   9  -2   2 5158.78 379.163   2
  -9   2  -2 4334.87 248.823   1
  -9  -2  -3 4666.70 401.772   1
  -9   2  -3 4931.06 341.579   3
   9  -2   3 4593.30 346.846   2
  -9   2  -3 5183.93 283.726   1
  -9  -2  -4 1727.69 243.991   1
  -9   2  -4 1673.62 210.972   3
  -9  -2  -4 2107.43 292.809   3
   9  -2   4 1923.29 215.445   2
  -9   2  -4 1489.07 160.718   1
  -9  -2  -5 5448.36 437.520   1
  -9   2  -5 5095.76 376.866   3
  -9  -2  -5 5759.25 475.313   3
   9  -2   5 5444.01 354.027   2
  -9   2  -5 5386.25 320.727   1
   9  -2   6 50.9323 23.3806   4
   9  -2   6 117.230 65.4316   2
  -9   2  -6 177.244 79.3919   3
  -9  -2  -6 188.823 97.2135   1
  -9  -2  -6 99.2553 76.2009   3
  -9   2  -6 118.822 63.0951   1
   9  -2   6 33.1611 17.8741   4
  -9  -2  -7 1263.28 229.220   1
  -9   2  -7 967.622 182.648   3
  -9  -2  -7 1470.91 252.827   3
   9  -2   7 865.265 155.840   2
   9  -2   7 569.725 73.4972   4
  -9   2  -7 964.761 154.861   1
   9  -2   8 397.980 94.9186   2
  -9  -2  -8 346.013 128.069   1
  -9   2  -8 357.312 114.741   3
  -9  -2  -8 365.507 138.224   3
  -9   2  -8 302.883 92.5509   1
   9  -2   9 82.6933 60.4972   2
  -9  -2  -9 273.034 125.894   1
  -9   2  -9-5.76724 69.2077   3
  -9  -2  -9 180.708 109.248   3
  -9   2  -9 108.902 80.3874   1
   9  -2  10 347.040 86.2430   2
  -9  -2 -10 382.968 130.085   1
  -9   2 -10 356.908 112.578   3
  -9  -2 -10 315.624 138.219   3
  -9   2 -10 364.099 115.227   1
  -9  -2 -11 112.104 114.279   1
  -9   2 -11 174.102 130.533   3
  -9  -2 -11 133.236 87.7524   3
  -9   2 -11 94.7018 78.5299   1
  -9  -2 -12 39.2962 66.4558   1
  -9   2 -12-1.38871 59.6355   3
  -9  -2 -12 20.5676 73.0967   3
  -9   2 -12 36.8037 61.0072   1
  -9  -2 -13-8.16635 54.2584   1
  -9   2 -13-34.9308 66.4946   3
  -9  -2 -13 165.992 101.725   3
  -9   2 -13 19.4828 59.6823   1
  -9  -2 -14 428.865 160.802   1
  -9   2 -14 398.182 161.037   3
  -9  -2 -14 425.386 144.295   3
  -9   2 -14 350.276 132.018   1
  -9  -2 -15 16.4389 74.2248   1
  -9   2 -15 172.179 113.398   3
  -9  -2 -15 99.9598 89.0112   3
  -9   2 -15 179.413 121.571   1
   9   3 -15 607.416 214.276   4
   9  -3 -15 883.183 208.385   4
   9   3 -15 826.487 238.084   2
   9  -3 -15 787.776 235.732   2
   9   3 -14-32.8461 89.4516   4
   9  -3 -14 117.767 108.145   4
   9   3 -14-94.1181 91.0852   2
   9  -3 -14 92.0209 113.318   2
   9   3 -13 423.318 215.805   4
   9  -3 -13 459.614 158.086   4
   9   3 -13 234.052 161.271   2
   9  -3 -13 316.705 150.610   2
   9   3 -12 142.156 120.884   2
   9  -3 -12 200.573 109.249   4
   9  -3 -12 37.4967 121.131   2
   9   3 -12 100.818 109.897   4
   9   3 -11-104.617 75.2319   2
   9  -3 -11 142.479 93.4088   4
   9  -3 -11 54.1029 72.2668   2
   9   3 -11 122.685 135.802   4
   9  -3 -10 123.221 81.5993   4
   9  -3 -10 120.052 122.351   2
   9   3 -10-28.7858 107.569   4
   9  -3  -9-5.53250 46.6991   4
   9  -3  -9 37.2759 61.9958   2
   9  -3  -8 543.266 134.012   4
   9  -3  -8 676.016 187.856   2
   9   3  -8 545.880 164.665   4
   9   3  -7 1631.06 317.440   4
   9  -3  -7 1603.70 208.830   4
   9  -3  -7 1765.29 285.536   2
   9  -3  -6 72.6408 58.1246   4
   9  -3  -6 167.305 107.931   2
   9   3  -6 261.835 139.151   4
  -9   3   5 3698.17 298.378   3
   9   3  -5 3475.69 432.839   4
   9  -3  -5 3984.65 300.282   4
  -9   3   4 17487.5 639.122   3
  -9  -3   4 16846.9 969.815   1
   9   3  -4 16404.3 911.239   4
  -9   3   3 1487.14 182.762   3
  -9  -3   3 1481.55 319.035   1
   9   3  -3 1731.81 295.972   4
   9  -3  -3 1955.60 268.780   2
  -9  -3   2 255.086 134.198   1
   9  -3  -2 133.827 83.6725   2
  -9   3   2 88.8553 47.0583   3
   9   3  -2 303.987 119.004   4
   9  -3  -1 234.167 103.675   2
  -9   3   1 218.076 91.8329   3
  -9  -3   1 257.700 126.148   1
  -9  -3   0 82.5780 107.701   1
   9  -3   0 99.2139 82.9095   2
  -9   3   0 29.6082 52.1996   3
  -9   3   0 5.94967 22.8348   1
  -9   3  -1 562.058 81.4432   1
  -9   3  -1 691.609 132.819   3
  -9  -3  -1 723.617 182.702   1
   9  -3   1 921.797 176.357   2
  -9   3  -2 228.253 60.2895   1
   9  -3   2 151.127 71.9230   2
  -9   3  -2 116.374 72.5821   3
  -9  -3  -2 161.158 85.9526   1
  -9   3  -3 847.007 160.194   3
  -9  -3  -3 829.951 196.323   1
   9  -3   3 1171.98 176.409   2
  -9   3  -3 596.503 105.149   1
  -9  -3  -4 346.396 133.178   1
   9  -3   4 483.500 114.414   2
  -9   3  -4 371.069 115.003   3
  -9   3  -4 342.845 81.6615   1
  -9  -3  -5 77.9393 105.375   1
   9  -3   5 107.442 50.5946   2
  -9   3  -5-37.4829 53.4191   3
  -9   3  -5-4.89288 30.5987   1
  -9  -3  -6 3295.34 386.229   1
  -9   3  -6 3794.65 355.291   3
  -9   3  -6 2920.11 247.644   1
   9  -3   6 3276.38 225.235   2
  -9   3  -7 250.179 89.7761   3
  -9   3  -7 111.537 60.7496   1
  -9  -3  -7 73.9665 96.7383   1
  -9   3  -8 260.865 113.179   3
  -9   3  -8 372.922 114.496   1
  -9  -3  -8 398.443 153.160   1
  -9   3  -9 138.919 92.8045   3
  -9   3  -9 158.601 91.9614   1
  -9  -3  -9 263.523 129.451   1
  -9   3 -10-21.8769 63.0379   3
  -9  -3 -10 186.399 112.057   1
  -9   3 -10 119.299 86.2621   1
  -9  -3 -10 270.751 126.010   3
  -9   3 -11 36.3378 67.7412   3
  -9  -3 -11-66.1040 71.3379   1
  -9   3 -11 9.45989 44.3968   1
  -9  -3 -11 7.97503 91.0431   3
  -9   3 -12 290.741 136.969   3
  -9  -3 -12 281.137 136.647   1
  -9   3 -12 317.002 112.395   1
  -9  -3 -12 288.804 132.876   3
  -9   3 -13 161.081 111.323   3
  -9  -3 -13 173.603 120.710   1
  -9   3 -13 46.3172 91.7777   1
  -9  -3 -13-88.6369 119.718   3
   9   4 -11 2699.92 440.125   4
   9  -4 -11 3965.14 480.859   2
   9  -4 -10 815.865 204.940   2
   9   4 -10 1151.91 286.104   4
   9  -4  -9 51.6025 66.0440   2
   9   4  -9 365.312 184.052   4
   9  -4  -8 1282.19 265.004   2
   9   4  -8 1298.33 302.649   4
   9  -4  -7 184.766 102.991   2
   9   4  -7 292.506 180.384   4
   9  -4  -6-11.6680 74.3905   2
   9   4  -6 309.594 161.638   4
   9  -4  -5 493.388 158.943   2
   9   4  -5 909.973 240.677   4
   9  -4  -4-55.4957 79.1735   2
   9   4  -4 165.292 139.338   4
   9  -4  -3 124.424 93.3098   2
  -9   4   3 167.520 75.2146   3
   9   4  -3 138.215 127.462   4
  -9  -4   2 17.2424 84.2985   1
   9  -4  -2 51.1648 65.7594   2
  -9   4   2-60.2464 53.0149   3
   9   4  -2-23.6984 73.0648   4
  -9  -4   1 14569.1 950.481   1
   9  -4  -1 13796.4 694.282   2
   9  -4   0 95.9887 76.9267   2
  -9   4   0 84.8957 53.5025   3
  -9  -4   0 70.7215 123.730   1
   9  -4   1 21.7017 56.2232   2
  -9   4  -1 102.557 86.5482   3
  -9  -4  -1 163.414 142.044   1
  -9  -4  -2 188.866 151.092   1
   9  -4   2 233.456 82.2758   2
  -9   4  -2 302.765 104.705   3
   9  -4   3 329.720 94.7182   2
  -9   4  -3 343.161 116.874   3
  -9  -4  -3 487.877 161.359   1
  -9   4  -4 257.929 107.689   3
  -9  -4  -4 397.727 163.450   1
  -9   4  -5 495.959 141.163   3
  -9  -4  -5 146.218 90.8437   1
  -9  -4  -6 267.624 158.079   1
  -9   4  -6 147.119 90.9765   3
  -9  -4  -7 470.810 204.542   1
  -9   4  -7 242.347 116.716   3
  -9  -4  -8-85.3210 105.971   1
  -9   4  -8 67.6770 67.4321   1
  -9  -4  -9 398.967 171.323   1
  -9   4  -9 219.911 101.485   3
  -9   4  -9 215.561 100.262   1
  -9  -4 -10 257.909 159.558   1
  -9   4 -10 545.820 183.576   3
  -9   4 -10 300.670 123.402   1
   9  -5  -4 53.2776 81.4888   2
   9   5  -4 592.563 268.214   4
   9  -5  -3 61.9842 58.8060   2
   9   5  -3 205.471 174.787   4
   9  -5  -2 154.412 103.427   2
   9   5  -2 78.8568 88.5420   4
   9  -5  -1 162.450 108.212   2
   9   5  -1 113.676 168.124   4
  -9  -5   0 143.799 157.390   1
  -9  -5  -1 90.3643 101.619   1
  -9  -5  -2 974.700 317.640   1
  -9   5  -2 326.173 112.579   3
  -9  -5  -3 1988.46 380.697   1
  -9   5  -3 922.544 181.403   3
  10   0 -17 301.643 174.460   4
  10   0 -17-44.9289 71.9917   2
  10   0 -16 172.785 98.8535   4
  10   0 -16 189.315 171.510   2
  10   0 -15 21.3342 93.0680   4
  10   0 -15 74.3550 96.2960   2
  10   0 -14 5926.26 545.346   4
  10   0 -14 6250.62 577.061   2
  10   0 -13 81.1241 95.0755   4
  10   0 -13 125.032 128.480   2
  10   0 -12 4447.83 465.436   2
  10   0 -12 4365.02 464.731   4
  10   0 -11 53.0418 88.2027   4
  10   0 -11-83.3939 67.5085   2
  10   0 -10 25971.9 1165.16   2
  10   0 -10 24839.3 1048.10   4
  10   0  -9 40.4452 74.1091   4
  10   0  -9 0.75872 78.5983   2
  10   0  -8 4108.43 431.342   2
  10   0  -8 4262.57 413.881   4
  10   0  -7 11.8531 78.5278   2
  10   0  -7-76.9934 87.6685   4
  10   0  -6 682.465 193.976   2
  10   0  -6 658.301 160.183   4
  10   0  -5 58.5410 63.2258   2
 -10   0   5-7.35732 58.0600   1
  10   0  -5 5.85305 55.2170   4
  10   0  -4 122.205 102.874   2
 -10   0   4 256.581 108.090   1
  10   0  -4 397.157 117.559   4
 -10   0   3 14.9458 35.4211   1
  10   0  -3 35.5401 49.2825   4
 -10   0   2 284.431 111.401   3
 -10   0   2 329.843 102.822   1
  10   0  -2 286.617 111.796   4
 -10   0   1 133.955 79.0219   1
 -10   0   1 5.72659 46.1676   3
  10   0  -1-14.1958 41.9845   4
 -10   0   0 195.424 80.2801   1
 -10   0   0 230.864 94.7205   3
  10   0   0 92.4571 72.2061   4
 -10   0  -1-0.77787 49.0868   3
 -10   0  -1-8.18330 53.8349   1
  10   0   1 7.79344 38.0727   4
 -10   0  -2 2972.26 271.188   1
 -10   0  -2 2754.71 292.956   3
 -10   0  -3 15.5126 47.6394   1
 -10   0  -3 62.9581 64.1000   3
 -10   0  -4 16387.1 626.451   1
 -10   0  -4 15095.9 649.738   3
 -10   0  -5 50.4481 66.3037   1
 -10   0  -5 2.46708 40.8382   3
 -10   0  -6 21309.5 766.385   1
 -10   0  -6 20523.6 798.718   3
 -10   0  -7 491.804 128.377   1
 -10   0  -7 20.5675 74.3423   3
 -10   0  -8 623.484 146.718   1
 -10   0  -8 656.673 171.872   3
 -10   0  -9-120.176 75.4761   1
 -10   0  -9-38.3358 59.8410   3
 -10   0 -10 89.3280 65.4849   1
 -10   0 -10 64.2489 68.1792   3
 -10   0 -11 45.7921 74.2855   1
 -10   0 -11-5.43082 59.7016   3
 -10   0 -12 595.921 156.421   1
 -10   0 -12 742.558 170.105   3
 -10   0 -13 139.769 91.8409   1
 -10   0 -13 56.4569 65.8715   3
 -10   0 -14 1075.92 216.840   3
 -10   0 -14 710.514 187.040   1
 -10   0 -15 30.9009 69.8936   3
 -10   0 -15-42.2732 55.4025   1
 -10   0 -16 45.9696 107.820   3
 -10   0 -16-34.1689 67.4770   1
  10   1 -17 153.928 171.085   4
  10  -1 -17 224.573 165.223   4
  10   1 -17 250.680 149.933   2
  10  -1 -17 83.8015 70.8958   2
  10   1 -16 393.306 187.133   4
  10  -1 -16 167.539 105.411   4
  10   1 -16 347.017 146.059   2
  10  -1 -16 197.481 138.449   2
  10   1 -15 39.9712 103.314   4
  10  -1 -15 68.2511 114.232   4
  10   1 -15 232.765 197.643   2
  10  -1 -15 44.6105 138.221   2
  10   1 -14 389.109 160.609   4
  10  -1 -14 380.705 139.513   4
  10   1 -14 226.743 136.574   2
  10   1 -13 358.731 149.304   4
  10  -1 -13 244.675 142.134   4
  10   1 -13 515.578 196.699   2
  10  -1 -13 389.499 160.612   2
  10   1 -12 4576.42 502.323   2
  10   1 -12 4703.65 511.402   4
  10  -1 -12 3925.39 397.622   4
  10  -1 -12 4070.33 457.721   2
  10   1 -11 5810.74 541.945   2
  10   1 -11 6803.01 583.591   4
  10  -1 -11 5388.27 462.805   4
  10  -1 -11 6913.07 584.139   2
  10   1 -10 100.773 100.889   4
  10  -1 -10-22.3457 78.0350   4
  10   1 -10-84.3312 130.027   2
  10  -1 -10 49.9855 106.832   2
  10   1  -9 5835.83 547.318   2
  10   1  -9 5048.69 510.753   4
  10  -1  -9 5011.21 480.625   2
  10  -1  -9 5860.93 462.193   4
  10  -1  -8 169.661 111.000   4
  10   1  -8 12.5112 61.6980   2
  10  -1  -8 272.434 132.995   2
  10   1  -8 51.2926 87.8956   4
  10  -1  -7 223.901 92.2443   4
  10   1  -7 31.5030 53.5640   2
  10  -1  -7 137.809 121.290   2
  10   1  -7 14.8609 83.7673   4
  10  -1  -6 1349.96 175.131   1
  10  -1  -6 1211.78 241.981   2
  10  -1  -6 980.294 185.919   4
  10   1  -6 884.119 201.616   4
  10  -1  -5 141.394 68.8132   4
  10  -1  -5 135.389 100.367   2
 -10  -1   5 9.04406 56.3410   1
  10  -1  -5 7.91022 38.4886   1
  10   1  -5 59.5168 100.389   4
  10  -1  -4 291.428 101.070   4
  10  -1  -4 316.949 127.011   2
 -10   1   4 402.621 133.686   1
  10  -1  -4 515.349 97.8913   1
 -10  -1   4 591.652 154.408   1
 -10   1   4 454.898 134.995   3
  10   1  -4 42.8688 84.0322   4
  10  -1  -3 142.613 89.5949   2
 -10   1   3 266.054 103.068   1
 -10  -1   3 237.829 110.445   1
 -10   1   3 226.220 71.3082   3
  10   1  -3 54.4394 64.4723   4
  10  -1  -3 197.403 116.963   1
  10  -1  -3 159.464 56.1768   4
 -10   1   2 2317.22 237.935   1
 -10  -1   2 1971.92 258.002   1
 -10   1   2 2359.36 273.989   3
  10   1  -2 1878.58 291.451   4
  10  -1  -2 1901.83 265.113   2
  10  -1  -2 1485.26 187.706   4
  10  -1  -2 1967.64 185.053   1
 -10   1   1 802.620 138.389   1
 -10  -1   1 744.690 162.839   1
 -10   1   1 792.292 151.024   3
  10   1  -1 866.283 189.974   4
  10  -1  -1 883.242 176.425   2
  10  -1  -1 840.247 136.470   4
 -10   1   0 10001.8 447.975   1
 -10  -1   0 8543.92 535.865   1
 -10   1   0 8034.42 464.241   3
  10   1   0 8894.54 562.272   4
  10  -1   0 8688.74 530.696   2
  10  -1   0 8857.89 411.910   4
  10  -1   1 7993.97 492.090   2
 -10   1  -1 7040.65 375.155   1
 -10  -1  -1 7559.03 488.860   1
 -10   1  -1 8119.33 455.445   3
 -10  -1  -1 7402.17 514.072   3
  10  -1   1 7327.49 369.216   4
 -10   1  -2 155.388 62.4699   1
 -10   1  -2 24.6075 44.8480   3
 -10  -1  -2-51.3536 60.1783   3
  10  -1   2 48.4782 49.6193   4
 -10  -1  -2 167.759 78.4815   1
 -10   1  -3 991.552 144.943   1
 -10  -1  -3 1132.61 192.031   1
 -10   1  -3 1336.01 207.744   3
 -10  -1  -3 964.903 186.544   3
  10  -1   3 960.751 138.351   4
 -10  -1  -4 603.238 148.337   1
 -10   1  -4 531.704 123.730   3
 -10  -1  -4 433.892 127.757   3
 -10   1  -4 637.165 124.796   1
 -10  -1  -5 2495.38 280.833   1
 -10   1  -5 2956.25 291.655   3
 -10  -1  -5 3127.67 332.105   3
 -10   1  -5 2741.12 244.286   1
 -10   1  -6 27.1385 40.7395   1
 -10  -1  -6-75.5812 69.0419   1
 -10   1  -6 35.3296 49.2682   3
 -10  -1  -7 1068.62 193.967   1
 -10   1  -7 731.547 153.578   3
 -10  -1  -7 668.041 159.395   3
 -10   1  -7 940.889 155.192   1
 -10  -1  -8 2830.76 314.508   1
 -10   1  -8 2157.00 266.155   3
 -10  -1  -8 2369.21 297.200   3
 -10   1  -8 2194.62 243.301   1
 -10  -1  -9 971.068 194.598   1
 -10   1  -9 899.878 180.703   3
 -10  -1  -9 817.023 192.366   3
 -10   1  -9 817.538 169.129   1
 -10  -1 -10 219.647 111.727   1
 -10   1 -10 174.061 106.919   3
 -10  -1 -10 122.522 98.5861   3
 -10   1 -10 280.802 113.584   1
 -10  -1 -11 161.991 88.7062   1
 -10   1 -11 103.068 58.9021   3
 -10  -1 -11 434.342 142.270   3
 -10   1 -11 281.532 109.678   1
 -10  -1 -12-78.8638 69.1301   1
 -10  -1 -12-69.7381 71.4528   3
 -10   1 -12 28.3642 57.7166   1
 -10  -1 -13 39.1305 100.626   1
 -10   1 -13 74.9233 61.1782   3
 -10  -1 -13-69.8743 60.2867   3
 -10   1 -13 55.2970 79.1295   1
 -10  -1 -14 180.672 109.284   1
 -10   1 -14 90.5401 103.522   3
 -10  -1 -14 171.387 102.298   3
 -10   1 -14 63.0236 69.1183   1
 -10  -1 -15 382.655 172.237   1
 -10   1 -15 199.567 111.949   3
 -10  -1 -15 146.173 112.662   3
 -10   1 -15 121.680 75.5634   1
  10   2 -16 1161.89 281.515   4
  10  -2 -16 1278.38 244.487   4
  10   2 -16 1151.15 273.804   2
  10  -2 -16 1098.92 270.695   2
  10   2 -15 162.628 125.788   4
  10  -2 -15-2.71102 83.2499   4
  10   2 -15 170.287 148.257   2
  10  -2 -15-63.7426 93.8317   2
  10   2 -14 162.101 87.7702   4
  10  -2 -14 389.681 145.055   4
  10   2 -14 456.313 200.821   2
  10  -2 -14 206.749 163.713   2
  10   2 -13 85.1047 138.717   4
  10  -2 -13 332.593 129.669   4
  10   2 -13 160.881 133.738   2
  10  -2 -13 21.3074 88.1840   2
  10   2 -12 211.338 168.432   4
  10  -2 -12-59.8498 52.8480   4
  10   2 -12 102.092 111.015   2
  10  -2 -12 56.8650 102.483   2
  10  -2 -11 131.528 79.7309   4
  10   2 -11 14.9102 68.0144   2
  10  -2 -11 170.610 143.346   2
  10   2 -11-149.583 85.6534   4
  10  -2 -10 252.702 120.490   4
  10   2 -10 162.485 138.406   2
  10  -2 -10 320.727 137.373   2
  10   2 -10 299.986 157.827   4
  10   2  -9 216.256 162.614   2
  10  -2  -9 110.386 84.7339   4
  10  -2  -9 129.750 113.091   2
  10   2  -9 122.043 110.289   4
  10   2  -8 19843.5 1026.05   4
  10  -2  -8 20516.6 775.282   4
  10  -2  -8 20080.9 975.604   2
  10   2  -7 4526.19 491.601   4
  10  -2  -7 4261.67 430.275   2
  10  -2  -7 4167.92 342.204   4
  10  -2  -7 4551.01 222.587   1
  10  -2  -6 31.2159 49.7873   4
  10   2  -6 113.745 108.741   4
  10  -2  -6 51.7413 34.0324   1
  10  -2  -5 650.499 172.282   2
 -10  -2   5 854.811 224.290   1
 -10   2   5 491.908 117.571   3
  10  -2  -5 797.964 151.293   4
  10  -2  -5 537.258 76.9204   1
  10   2  -5 489.774 188.862   4
 -10   2   4 4661.98 367.055   3
 -10  -2   4 4444.51 469.529   1
  10   2  -4 4260.64 460.786   4
  10  -2  -4 3465.61 185.602   1
  10  -2  -4 4786.25 416.721   2
  10  -2  -4 4558.38 313.305   4
 -10   2   3 3003.31 283.409   3
 -10  -2   3 2927.15 371.749   1
 -10   2   3 2783.19 272.567   4
  10   2  -3 2396.07 350.585   4
  10  -2  -3 2244.73 165.448   1
  10  -2  -3 2205.88 277.564   2
  10  -2  -3 2495.65 220.812   4
  10  -2  -2 342.916 84.5821   4
 -10   2   2 481.099 103.842   1
  10  -2  -2 273.112 89.8218   2
 -10  -2   2 241.366 97.3512   1
 -10   2   2 467.529 121.429   3
  10   2  -2 341.220 123.451   4
 -10   2   1 15516.6 525.477   1
 -10   2   1 12434.7 547.133   3
 -10  -2   1 12868.6 722.407   1
  10   2  -1 12109.8 733.690   4
  10  -2  -1 14240.9 678.133   2
  10  -2  -1 14271.8 453.636   4
  10  -2   0 266.289 68.2041   4
  10  -2   0 121.371 82.1916   2
 -10   2   0 54.3422 48.7509   3
 -10  -2   0 45.1813 43.8609   1
 -10   2   0 155.810 67.1241   1
  10  -2   1-24.2869 28.6704   4
  10  -2   1-39.2040 70.8483   2
 -10  -2  -1-4.53621 45.8351   1
 -10   2  -1-0.41545 26.7266   1
 -10   2  -1-25.0854 44.4665   3
  10  -2   2 18.4361 22.7834   4
  10  -2   2-21.1388 42.2048   2
 -10  -2  -2-11.0040 54.2185   1
 -10   2  -2 3.59427 33.1615   1
 -10   2  -2 62.8459 58.0178   3
 -10  -2  -3 864.951 187.961   1
 -10   2  -3 1298.47 195.558   3
  10  -2   3 1115.33 182.280   2
 -10   2  -3 1224.00 149.528   1
  10  -2   4 66.7977 20.1372   4
 -10   2  -4 223.776 69.5462   1
 -10   2  -4 189.220 84.4389   3
 -10  -2  -4 303.670 138.947   3
 -10  -2  -4 248.168 111.627   1
 -10   2  -5 440.348 108.587   1
  10  -2   5 143.289 27.8919   4
  10  -2   5 353.179 110.399   2
 -10   2  -5 471.040 125.491   3
 -10  -2  -5 579.418 170.462   3
 -10  -2  -5 360.369 144.273   1
  10  -2   5 107.311 26.0238   4
  10  -2   6 17.4497 19.6677   4
  10  -2   6 187.874 79.1912   2
 -10   2  -6 36.5153 51.6856   3
 -10  -2  -6 184.006 105.706   3
 -10  -2  -6 62.1650 96.8779   1
  10  -2   6 42.8815 23.3073   4
 -10   2  -6 186.438 71.8845   1
 -10   2  -7 807.001 176.164   3
 -10  -2  -7 656.401 165.031   1
 -10  -2  -7 863.402 221.971   3
  10  -2   7 305.462 54.9600   4
  10  -2   7 611.660 151.756   2
 -10   2  -7 789.326 144.931   1
  10  -2   8 525.573 133.942   2
 -10   2  -8 198.392 88.7919   3
 -10  -2  -8 515.173 159.108   1
 -10  -2  -8 287.683 135.887   3
 -10   2  -8 141.794 69.3600   1
  10  -2   9 34.0645 69.9516   2
 -10  -2  -9 24.2007 63.6512   1
 -10   2  -9 199.642 103.384   3
 -10  -2  -9 43.9333 83.0406   3
 -10   2  -9 33.7111 36.9261   1
 -10  -2 -10 873.706 195.530   1
 -10   2 -10 585.127 155.970   3
 -10  -2 -10 634.307 170.189   3
 -10   2 -10 478.164 120.280   1
 -10  -2 -11 56.3423 65.2942   1
 -10   2 -11 103.493 113.865   3
 -10  -2 -11-101.619 98.8285   3
 -10   2 -11 45.0207 74.1598   1
 -10  -2 -12 14.6950 65.1238   1
 -10  -2 -12 5.32625 82.8109   3
 -10   2 -12-27.7967 62.8148   1
 -10  -2 -13 365.041 135.097   1
 -10   2 -13 491.459 174.234   3
 -10  -2 -13 425.372 155.085   3
 -10   2 -13 209.695 111.570   1
 -10  -2 -14 313.344 143.578   1
 -10   2 -14 135.915 90.5916   3
 -10  -2 -14 291.472 149.250   3
 -10   2 -14 428.909 148.427   1
  10   3 -14 995.030 265.587   4
  10  -3 -14 840.542 213.056   4
  10   3 -14 424.099 167.750   2
  10  -3 -14 612.409 205.655   2
  10   3 -13 69.1596 115.179   4
  10  -3 -13-47.6525 69.6248   4
  10   3 -13 195.358 126.449   2
  10  -3 -13 201.989 140.876   2
  10   3 -12 254.232 173.084   2
  10  -3 -12 209.081 109.694   4
  10  -3 -12 206.160 162.754   2
  10   3 -12 588.598 250.337   4
  10   3 -11 57.9381 121.137   2
  10  -3 -11 86.0084 73.7403   4
  10  -3 -11 26.0469 128.260   2
  10   3 -11 228.858 165.711   4
  10  -3 -10 121.828 88.5812   4
  10  -3 -10 66.1083 124.514   2
  10   3 -10 246.293 168.567   4
  10  -3  -9 156.383 98.4357   4
  10  -3  -9 117.438 103.026   2
  10   3  -9 8.12748 91.7548   4
  10   3  -8 1358.37 290.580   4
  10  -3  -8 1346.91 212.137   4
  10  -3  -8 1093.68 229.818   2
  10   3  -7 7257.53 658.914   4
  10  -3  -7 8591.81 492.640   4
  10  -3  -7 7702.79 595.884   2
  10   3  -6 1846.71 335.978   4
  10  -3  -6 1966.40 227.095   4
  10  -3  -6 1412.19 259.318   2
  10   3  -5 7395.10 642.863   4
  10  -3  -5 7783.80 584.514   2
  10  -3  -5 7933.67 421.776   4
 -10   3   4 2222.71 260.007   3
 -10  -3   4 2878.03 414.880   1
  10   3  -4 2085.61 348.584   4
  10  -3  -4 3860.29 398.677   2
  10  -3  -4 3372.73 255.820   4
  10  -3  -3 187.058 115.362   2
 -10   3   3-74.9065 67.1623   3
  10   3  -3-74.2598 76.8259   4
 -10  -3   3-118.837 135.925   1
  10   3  -2 4986.40 509.796   4
 -10   3   2 4489.94 325.937   3
 -10  -3   2 5137.92 537.622   1
  10  -3  -2 5563.57 449.013   2
 -10   3   1 804.378 145.411   3
 -10  -3   1 1080.70 249.570   1
  10  -3  -1 1001.57 189.583   2
 -10   3   0 764.649 95.4943   1
 -10   3   0 1298.93 190.674   3
 -10  -3   0 1289.01 270.937   1
  10  -3   0 1408.47 217.544   2
 -10   3  -1 352.056 74.6265   1
 -10   3  -1 247.629 88.3296   3
 -10  -3  -1 343.718 126.335   1
 -10   3  -2 694.889 106.708   1
  10  -3   2 547.221 143.678   2
 -10   3  -2 580.028 132.099   3
 -10  -3  -2 832.761 209.369   1
 -10   3  -3 123.089 58.1159   1
  10  -3   3 354.799 118.716   2
 -10  -3  -3 71.8218 66.9267   1
 -10   3  -3 186.409 90.2995   3
 -10  -3  -4 2212.43 341.593   1
 -10   3  -4 1895.72 247.008   3
  10  -3   4 2163.59 250.148   2
 -10   3  -4 1310.39 161.166   1
 -10  -3  -5 167.579 124.839   1
  10  -3   5 89.7451 69.1598   2
 -10   3  -5 7.78658 68.1536   3
 -10   3  -5 140.399 61.5748   1
 -10  -3  -6 66.8463 83.1889   1
  10  -3   6 107.061 63.0429   2
 -10   3  -6 237.041 103.089   3
 -10   3  -6 203.312 70.6919   1
 -10  -3  -7 1000.44 238.211   1
 -10   3  -7 895.503 194.529   3
 -10   3  -7 1085.62 168.061   1
 -10   3  -8 31.9491 65.4435   3
 -10   3  -8 119.029 76.9682   1
 -10  -3  -8 217.871 129.085   1
 -10   3  -9 735.759 176.743   3
 -10  -3  -9 561.787 182.892   1
 -10   3  -9 573.230 140.426   1
 -10   3 -10 78.8263 94.5401   3
 -10  -3 -10 39.3565 120.466   1
 -10   3 -10 102.983 59.7433   1
 -10   3 -11 149.940 113.054   3
 -10  -3 -11 44.9086 86.6250   3
 -10   3 -11 54.5672 66.0556   1
 -10   3 -12 493.206 178.736   3
 -10  -3 -12 660.099 201.198   1
 -10  -3 -12 491.428 177.775   3
 -10   3 -12 355.473 137.413   1
  10   4 -10 2899.87 467.535   4
  10  -4 -10 2939.93 424.293   2
  10  -4  -9 511.832 198.196   2
  10   4  -9 317.379 183.910   4
  10  -4  -8 517.048 171.085   2
  10   4  -8 631.020 198.900   4
  10  -4  -7 125.351 104.833   2
  10   4  -7 266.112 156.397   4
  10  -4  -6 198.154 114.744   2
  10   4  -6 304.102 152.124   4
  10  -4  -5 82.7848 93.2271   2
  10   4  -5 397.091 213.529   4
  10  -4  -4 66.2780 81.4251   2
  10   4  -4-64.3612 121.500   4
 -10   4   3 713.327 141.271   3
 -10  -4   3 937.228 290.274   1
  10   4  -3 961.091 240.029   4
  10  -4  -3 1393.96 240.027   2
  10  -4  -2 115.275 91.3218   2
 -10  -4   2 178.071 157.677   1
 -10   4   2 264.410 93.8631   3
  10   4  -2-65.7269 89.7679   4
 -10   4   1 2033.69 236.998   3
 -10  -4   1 3064.54 469.223   1
  10   4  -1 3005.82 444.554   4
  10  -4  -1 2973.17 333.095   2
 -10   4   0 4246.56 347.363   3
 -10  -4   0 5465.91 594.936   1
  10  -4   0 6112.15 462.627   2
  10  -4   1 173.755 88.2568   2
 -10  -4  -1 374.871 159.593   1
 -10   4  -1 210.186 87.8237   3
 -10  -4  -2-20.6819 105.363   1
  10  -4   2 219.589 103.203   2
 -10   4  -2 124.786 76.9643   3
 -10  -4  -3 498.696 186.751   1
 -10   4  -3 263.681 107.065   3
 -10   4  -4 122.265 83.9311   3
 -10  -4  -4 120.356 137.148   1
 -10   4  -5 115.750 91.0077   3
 -10  -4  -5 105.934 116.999   1
 -10  -4  -6 350.416 195.476   1
 -10   4  -6 173.090 112.679   3
 -10  -4  -7 25.5442 107.480   1
 -10   4  -7 276.307 120.747   3
 -10  -4  -8 403.922 188.786   1
 -10   4  -8 33.8041 113.933   3
 -10  -4  -9 3.81827 107.218   1
 -10   4  -9 176.008 121.071   3
  11   0 -16-81.9691 88.1418   4
  11   0 -16-88.9082 128.105   2
  11   0 -15 1060.53 258.195   4
  11   0 -15 1382.80 299.639   2
  11   0 -14-64.4508 69.6098   4
  11   0 -14-50.1512 86.3614   2
  11   0 -13 1117.70 267.839   2
  11   0 -13 1450.23 268.049   4
  11   0 -12-91.6715 73.7893   4
  11   0 -12 127.697 145.006   2
  11   0 -11 479.812 180.142   4
  11   0 -11 528.495 183.669   2
  11   0 -10 204.126 116.180   4
  11   0 -10 36.9572 97.7722   2
  11   0  -9 170.616 113.089   4
  11   0  -9 214.504 131.307   2
  11   0  -8 1.71586 88.4593   4
  11   0  -8-4.45490 103.744   2
  11   0  -7 5390.89 512.356   2
  11   0  -7 4998.70 449.519   4
  11   0  -6-0.38088 71.7971   2
  11   0  -6-71.7189 71.6552   4
  11   0  -5 28.8055 86.6145   2
 -11   0   5 54.4575 78.8410   1
  11   0  -5-4.83558 74.2683   4
  11   0  -4 16.8275 60.3504   2
 -11   0   4 93.1814 85.7189   1
  11   0  -4 108.602 89.6159   4
 -11   0   3 2851.63 306.617   1
  11   0  -3 1772.98 256.058   4
 -11   0   2-43.3754 47.6302   3
 -11   0   2 23.3807 63.1010   1
  11   0  -2-0.27130 63.7636   4
 -11   0   1 1031.35 178.873   1
 -11   0   1 629.689 149.110   3
  11   0  -1 638.068 166.074   4
 -11   0   0 23.2693 64.1221   1
 -11   0   0 158.912 105.107   3
  11   0   0-51.9653 60.9798   4
 -11   0  -1 666.360 153.019   1
 -11   0  -1 619.928 153.730   3
  11   0   1 350.823 110.270   4
 -11   0  -2-52.8171 60.7154   3
 -11   0  -2-59.0488 43.5710   1
  11   0   2 65.0240 86.0272   4
 -11   0  -3 1411.54 200.708   1
 -11   0  -3 1313.44 229.135   3
 -11   0  -4 20.1729 63.7507   1
 -11   0  -4-9.20353 59.6954   3
 -11   0  -5 14515.2 634.351   1
 -11   0  -5 16890.6 734.775   3
 -11   0  -6 96.6518 50.8844   1
 -11   0  -6 86.0897 98.6616   3
 -11   0  -7 599.980 141.417   1
 -11   0  -7 664.749 167.465   3
 -11   0  -8-6.12282 41.2682   1
 -11   0  -8 8.04041 84.5670   3
 -11   0  -9-79.6433 58.2362   1
 -11   0  -9 153.386 67.0396   3
 -11   0 -10-9.80669 54.6762   1
 -11   0 -10 30.2870 51.0004   3
 -11   0 -11-46.6846 66.2856   1
 -11   0 -11-4.44991 60.5946   3
 -11   0 -12 116.897 97.7627   1
 -11   0 -12 186.808 127.230   3
 -11   0 -13 62.5109 103.494   1
 -11   0 -13 94.4124 70.6360   3
 -11   0 -14 137.379 87.6324   1
 -11   0 -14 118.457 117.991   3
 -11   0 -15 863.598 210.076   1
 -11   0 -15 790.176 207.801   3
  11   1 -16 612.652 227.473   4
  11  -1 -16 746.732 232.375   4
  11   1 -16 360.271 179.558   2
  11  -1 -16 585.015 194.879   2
  11   1 -15 65.9182 116.895   4
  11  -1 -15 151.330 124.202   4
  11   1 -15 268.709 170.658   2
  11  -1 -15 290.647 154.362   2
  11   1 -14 324.855 172.121   4
  11  -1 -14 229.886 119.771   4
  11   1 -14 321.686 171.347   2
  11  -1 -14 155.476 108.485   2
  11   1 -13 1154.57 263.990   4
  11  -1 -13 1124.72 227.126   4
  11  -1 -13 1110.25 268.902   2
  11   1 -13 1254.11 300.072   2
  11   1 -12 80.1288 80.8616   4
  11  -1 -12 127.196 122.310   4
  11   1 -12-0.96336 79.0758   2
  11  -1 -12 261.031 121.174   2
  11   1 -11 606.095 192.326   4
  11  -1 -11 559.813 160.385   4
  11   1 -11 395.409 173.055   2
  11  -1 -11 381.094 162.675   2
  11   1 -10 4932.54 530.578   2
  11   1 -10 4139.11 482.218   4
  11  -1 -10 5257.19 512.156   2
  11  -1 -10 4716.54 434.532   4
  11   1  -9 6929.40 617.072   2
  11  -1  -9 6955.70 580.911   2
  11  -1  -9 6946.81 518.483   4
  11   1  -9 8033.55 669.435   4
  11  -1  -8 938.751 182.585   4
  11   1  -8 736.254 196.017   2
  11  -1  -8 759.017 184.664   2
  11   1  -8 462.833 193.171   4
  11   1  -7 3335.52 428.597   2
  11   1  -7 3192.03 408.846   4
  11  -1  -7 3445.13 407.927   2
  11  -1  -7 3648.19 355.039   4
  11  -1  -6 822.872 206.568   2
  11  -1  -6 1022.84 194.341   4
  11   1  -6 894.065 199.986   4
  11  -1  -5 238.759 105.917   4
  11  -1  -5 211.755 112.012   2
 -11  -1   5 339.455 129.148   1
  11   1  -5 142.339 140.472   4
  11  -1  -4 233.622 94.4120   4
  11  -1  -4 264.025 138.746   2
 -11  -1   4 469.998 169.426   1
 -11   1   4 470.090 123.448   3
 -11   1   4 656.357 158.322   1
  11   1  -4 460.128 152.982   4
  11  -1  -3-3.56880 54.0857   2
 -11   1   3 115.912 72.2089   1
 -11  -1   3 85.3498 63.1105   1
 -11   1   3 63.1666 72.9911   3
  11   1  -3 107.551 92.3363   4
  11  -1  -3-6.13736 43.4847   4
 -11   1   2 3070.85 288.169   1
 -11  -1   2 2863.46 329.665   1
 -11   1   2 3340.70 328.650   3
  11  -1  -2 2668.72 342.898   2
  11  -1  -2 3016.39 276.091   4
  11  -1  -1 686.935 174.232   2
 -11   1   1 360.456 99.3335   1
 -11  -1   1 353.954 126.691   1
 -11   1   1 523.302 138.003   3
  11   1  -1 565.239 166.863   4
  11  -1  -1 233.412 85.1904   4
 -11   1   0 4783.49 345.433   1
 -11  -1   0 4466.57 395.792   1
 -11   1   0 4415.72 363.224   3
  11   1   0 3807.20 386.351   4
  11  -1   0 4371.11 408.079   2
  11  -1   0 4383.34 314.558   4
 -11   1  -1 12270.0 528.900   1
 -11  -1  -1 11926.5 647.423   1
 -11   1  -1 12079.9 595.151   3
 -11  -1  -1 13955.3 736.759   3
  11  -1   1 12490.3 657.454   2
  11  -1   1 12157.1 515.673   4
 -11  -1  -2-42.8890 57.1794   1
 -11   1  -2 70.9130 53.4739   1
 -11   1  -2-9.19618 56.3700   3
 -11  -1  -2 29.6224 64.9655   3
  11  -1   2 101.828 75.4212   4
 -11   1  -3 584.400 116.810   1
 -11  -1  -3 780.957 166.182   1
 -11   1  -3 754.243 157.909   3
 -11  -1  -3 698.652 186.116   3
  11  -1   3 705.937 133.305   4
 -11   1  -4 239.446 80.3850   1
 -11   1  -4 135.132 83.1112   3
 -11  -1  -4 260.341 123.123   3
 -11  -1  -4 404.733 135.123   1
  11  -1   4 172.493 72.2053   4
 -11   1  -5 3322.51 293.231   1
 -11  -1  -5 2938.44 325.121   1
 -11   1  -5 3472.33 345.257   3
 -11  -1  -5 3375.23 375.794   3
 -11   1  -6 340.566 97.9289   1
 -11  -1  -6 295.464 121.095   1
 -11   1  -6 476.383 150.402   3
 -11  -1  -6 350.097 126.151   3
 -11   1  -7-36.2589 50.6437   1
 -11  -1  -7-13.4131 40.0992   1
 -11   1  -7-4.55524 78.3606   3
 -11  -1  -7-41.3228 67.1508   3
 -11  -1  -8 2352.43 291.456   1
 -11   1  -8 1808.17 266.428   3
 -11  -1  -8 2173.74 302.517   3
 -11   1  -8 2186.88 256.919   1
 -11   1  -9 11.5319 52.7659   1
 -11  -1  -9-27.7458 66.6368   1
 -11   1  -9 28.4031 85.3635   3
 -11  -1  -9-9.78700 65.2080   3
 -11  -1 -10 870.733 196.447   1
 -11   1 -10 345.721 117.221   1
 -11   1 -10 602.909 153.733   3
 -11  -1 -10 558.566 150.663   3
 -11  -1 -11 957.970 205.863   1
 -11   1 -11 1286.90 232.025   3
 -11  -1 -11 805.296 196.013   3
 -11   1 -11 938.099 180.197   1
 -11  -1 -12 244.283 140.137   1
 -11   1 -12 27.1141 61.2948   3
 -11  -1 -12 224.225 108.740   3
 -11   1 -12 98.6859 69.5678   1
 -11  -1 -13 172.832 116.767   1
 -11   1 -13 224.801 108.199   3
 -11  -1 -13 100.599 82.2742   3
 -11   1 -13 204.285 113.023   1
 -11  -1 -14 438.498 160.636   1
 -11   1 -14 332.276 133.610   3
 -11  -1 -14 629.317 189.467   3
 -11   1 -14 432.152 150.108   1
  11   2 -15 188.870 184.406   4
  11  -2 -15 118.396 91.7062   4
  11   2 -15 298.423 175.324   2
  11  -2 -15 142.540 108.383   2
  11   2 -14 616.486 256.517   4
  11  -2 -14 408.570 139.906   4
  11   2 -14 361.562 179.945   2
  11  -2 -14 311.039 152.458   2
  11   2 -13 518.655 184.721   4
  11  -2 -13 506.529 149.739   4
  11   2 -13 593.019 194.074   2
  11  -2 -13 432.220 180.741   2
  11   2 -12 123.000 123.456   4
  11  -2 -12 201.484 146.065   4
  11   2 -12 96.0400 137.552   2
  11  -2 -12 12.4491 62.7050   2
  11  -2 -11 545.932 168.009   4
  11   2 -11 540.344 227.327   2
  11  -2 -11 677.157 198.173   2
  11   2 -11 389.234 206.453   4
  11  -2 -10 611.290 169.220   4
  11   2 -10 789.325 225.833   2
  11  -2 -10 618.575 195.143   2
  11  -2  -9 355.587 119.527   4
  11   2  -9 232.978 153.471   2
  11  -2  -9 402.862 153.133   2
  11   2  -9 444.925 181.564   4
  11   2  -8 1906.98 330.022   4
  11  -2  -8 2624.13 285.436   4
  11  -2  -8 2847.77 385.650   2
  11   2  -7 5191.87 542.773   4
  11  -2  -7 5989.51 516.994   2
  11  -2  -7 4891.05 380.918   4
  11  -2  -6 240.122 94.2955   4
  11  -2  -6 121.634 90.6101   2
  11   2  -6 243.822 126.151   4
  11  -2  -5-0.21423 46.6528   4
  11  -2  -5 20.2604 49.0596   2
 -11   2   5 133.642 93.9862   3
  11  -2  -5 34.7804 31.3943   1
 -11  -2   5 99.3948 96.9854   1
  11   2  -5 92.8308 104.874   4
 -11   2   4 2400.92 273.240   3
 -11  -2   4 3095.62 400.764   1
  11   2  -4 2418.01 370.265   4
  11  -2  -4 2072.89 166.517   1
  11  -2  -4 2769.84 335.945   2
  11  -2  -4 2831.42 263.711   4
 -11   2   3 14803.7 698.257   3
 -11  -2   3 14415.2 850.265   1
 -11   2   3 15687.8 611.728   1
  11   2  -3 13864.4 848.090   4
  11  -2  -3 14927.8 746.822   2
  11  -2  -3 15169.5 563.819   4
 -11   2   2 4455.80 364.813   3
 -11   2   2 4050.83 295.545   1
 -11  -2   2 4413.66 451.223   1
  11  -2  -2 3251.57 234.044   1
  11   2  -2 3946.76 442.377   4
  11  -2  -2 3808.20 376.612   2
  11  -2  -2 4487.57 292.866   4
 -11   2   1 3077.95 252.570   1
 -11   2   1 2492.01 268.979   3
 -11  -2   1 3443.84 389.762   1
  11   2  -1 2454.15 349.675   4
  11  -2  -1 2396.09 301.169   2
  11  -2  -1 2647.39 214.412   4
  11  -2   0-20.4294 42.1836   4
  11  -2   0-37.1720 59.6047   2
 -11   2   0 148.749 71.7663   3
 -11  -2   0 30.6518 68.9585   1
 -11   2   0 124.160 69.9034   1
  11  -2   1 213.278 61.4944   4
  11  -2   1 302.674 116.329   2
 -11  -2  -1 331.434 135.451   1
 -11   2  -1 303.353 102.014   3
 -11   2  -1 140.630 68.6636   1
  11  -2   2 113.611 41.2751   4
  11  -2   2 154.276 85.0510   2
 -11  -2  -2 115.267 93.7733   1
 -11   2  -2 43.6080 41.3015   1
 -11   2  -2 46.8001 67.0915   3
  11  -2   3-7.62383 18.2771   4
 -11  -2  -3-42.1906 72.4488   1
  11  -2   3 119.221 72.7052   2
 -11   2  -3-21.8788 31.8399   1
 -11   2  -3 138.630 66.5007   3
 -11  -2  -4 87.4090 80.6759   1
  11  -2   4 30.5744 71.3549   2
 -11   2  -4 100.367 50.8489   1
 -11  -2  -4 24.0417 72.3419   3
  11  -2   4 31.7688 24.7426   4
 -11  -2  -5 851.624 199.377   1
 -11   2  -5 867.596 180.833   3
 -11  -2  -5 1326.38 263.557   3
  11  -2   5 900.352 201.913   2
  11  -2   5 368.781 54.8779   4
 -11   2  -5 1071.70 161.872   1
 -11   2  -6 138.503 67.5581   1
  11  -2   6 26.0036 76.4306   2
 -11   2  -6 220.955 112.501   3
 -11  -2  -6 228.102 127.358   3
 -11  -2  -6-1.76176 60.8190   1
  11  -2   6 46.5107 30.5605   4
 -11  -2  -7 1662.50 281.005   1
 -11   2  -7 1463.83 222.565   3
 -11  -2  -7 1558.42 292.527   3
  11  -2   7 1259.37 220.871   2
 -11   2  -7 1097.84 182.237   1
  11  -2   8 302.454 130.205   2
 -11   2  -8 483.752 128.171   3
 -11  -2  -8 231.951 141.991   1
 -11  -2  -8 568.528 167.383   3
 -11   2  -8 375.938 108.744   1
 -11   2  -9 986.070 210.344   3
 -11  -2  -9 813.197 188.377   1
 -11  -2  -9 852.898 236.285   3
  11  -2   9 1202.79 202.952   2
 -11   2  -9 695.978 148.021   1
 -11  -2 -10 12.3789 60.1239   1
 -11   2 -10 177.674 106.052   3
 -11  -2 -10 115.123 114.011   3
 -11   2 -10 260.587 116.990   1
 -11  -2 -11 1138.27 235.096   1
 -11   2 -11 1249.74 243.834   3
 -11  -2 -11 1546.86 290.442   3
 -11   2 -11 1092.31 194.342   1
 -11  -2 -12 600.677 189.386   1
 -11   2 -12 547.089 173.282   3
 -11  -2 -12 431.909 189.084   3
 -11   2 -12 426.968 133.980   1
 -11  -2 -13 117.712 129.595   1
 -11   2 -13 175.492 113.343   3
 -11  -2 -13 185.240 130.840   3
 -11   2 -13 114.128 72.4795   1
  11   3 -13 5.67196 104.517   4
  11  -3 -13 117.839 130.898   4
  11   3 -13 156.093 154.004   2
  11  -3 -13 39.1500 76.4228   2
  11   3 -12 335.472 131.152   2
  11  -3 -12 590.134 179.952   4
  11  -3 -12 770.381 227.382   2
  11   3 -12 442.455 209.154   4
  11   3 -11-28.1892 92.8720   2
  11  -3 -11 302.871 124.975   4
  11  -3 -11 176.433 107.606   2
  11   3 -11 262.476 185.927   4
  11  -3 -10 214.375 103.640   4
  11  -3 -10 69.0358 106.074   2
  11   3 -10 300.359 165.395   4
  11  -3  -9 221.285 105.445   4
  11  -3  -9 284.982 163.167   2
  11   3  -9 391.232 182.862   4
  11  -3  -8 70.7663 79.4471   4
  11   3  -8 326.584 162.438   4
  11   3  -7 4365.61 541.779   4
  11  -3  -7 5764.18 412.482   4
  11  -3  -7 4338.08 464.121   2
  11   3  -6 8347.96 722.352   4
  11  -3  -6 10098.1 517.642   4
  11  -3  -6 9153.94 648.597   2
  11  -3  -5 24.2506 51.0137   4
  11  -3  -5 1.52071 63.6373   2
 -11   3   5 137.162 100.294   3
  11   3  -5 261.746 187.937   4
 -11   3   4 13621.3 672.977   3
 -11  -3   4 13933.6 941.321   1
  11   3  -4 12236.5 861.779   4
  11  -3  -4 14351.8 781.473   2
 -11   3   3 2842.59 296.322   3
 -11  -3   3 3498.44 466.015   1
  11   3  -3 3077.87 429.657   4
  11  -3  -3 4365.11 421.126   2
  11  -3  -3 4205.18 265.154   4
 -11   3   2 1695.65 230.821   3
 -11  -3   2 1776.37 333.337   1
  11   3  -2 1683.00 319.073   4
  11  -3  -2 1566.98 252.633   2
  11  -3  -1 132.048 94.9746   2
 -11  -3   1 113.747 90.5245   1
 -11   3   1 311.402 109.968   3
 -11  -3   0 577.399 181.550   1
  11  -3   0 474.987 140.262   2
 -11   3   0 519.184 139.677   3
  11  -3   1 255.796 109.974   2
 -11   3  -1 71.9534 45.6039   3
 -11  -3  -1 96.6909 103.675   1
  11  -3   2 83.1011 75.2871   2
 -11   3  -2 2.96451 31.9516   1
 -11   3  -2-89.2200 66.4508   3
 -11  -3  -2 157.291 107.237   1
 -11   3  -3 422.102 100.908   1
 -11   3  -3 453.284 135.055   3
 -11  -3  -4 875.699 228.978   1
 -11   3  -4 697.669 164.072   3
  11  -3   4 857.653 186.393   2
 -11   3  -4 895.999 139.360   1
 -11   3  -5 101.116 62.9218   1
 -11  -3  -5 197.402 133.168   1
  11  -3   5 359.658 119.331   2
 -11   3  -5 117.240 68.5375   3
 -11   3  -6 196.852 86.7603   1
 -11  -3  -6 188.849 113.864   1
 -11   3  -6 171.260 94.8758   3
 -11  -3  -7 99.0315 69.3360   1
 -11   3  -7 75.9749 68.6180   3
 -11   3  -7 10.5056 42.4346   1
 -11   3  -8-6.20213 53.5271   3
 -11   3  -8 128.395 74.5559   1
 -11  -3  -8 1.76330 88.1382   1
 -11   3  -9-57.7731 88.0657   3
 -11  -3  -9-33.0297 95.6688   1
 -11   3  -9 90.6509 93.4291   1
 -11   3 -10 83.3900 90.5427   3
 -11  -3 -10 79.7355 109.633   1
 -11   3 -10 52.7789 58.9737   1
 -11   3 -11 50.8346 87.8318   3
 -11  -3 -11 16.7261 81.8581   1
 -11  -3 -11-49.2514 90.6041   3
 -11   3 -11 103.790 88.8202   1
  11  -4  -9 1189.33 284.678   2
  11   4  -9 1109.00 309.802   4
  11   4  -8 2452.07 428.305   4
  11  -4  -8 1932.09 326.174   2
  11  -4  -7 121.332 87.7604   2
  11   4  -7 36.6579 118.982   4
  11  -4  -6 166.952 121.805   2
  11   4  -6 108.160 127.836   4
  11  -4  -5 83.2345 88.7926   2
  11   4  -5-118.420 112.031   4
  11  -4  -4 17.7785 68.3780   2
  11   4  -4-148.685 161.340   4
  11  -4  -3 114.580 96.9733   2
 -11  -4   3 263.572 178.823   1
  11   4  -3 0.56582 94.5052   4
  11  -4  -2 931.781 213.775   2
 -11  -4   2 864.158 282.373   1
 -11   4   2 369.715 117.054   3
  11   4  -2 717.031 231.839   4
  11  -4  -1 1131.18 217.176   2
 -11  -4   1 944.529 273.929   1
 -11   4   1 827.400 163.800   3
  11   4  -1 608.370 197.817   4
 -11  -4   0 1282.88 347.300   1
 -11   4   0 390.611 120.116   3
  11  -4   0 975.428 209.838   2
 -11  -4  -1 2.60543 84.6655   1
 -11   4  -1 5.90537 64.8778   3
 -11  -4  -2 133.355 107.797   1
  11  -4   2 106.187 83.4281   2
 -11   4  -2 222.213 107.582   3
 -11  -4  -3 129.067 116.420   1
 -11   4  -3 76.3448 76.6089   3
 -11   4  -4 64.6697 74.2523   3
 -11  -4  -4 235.743 161.803   1
 -11   4  -5 161.697 94.5722   3
 -11  -4  -5 78.7743 125.109   1
 -11  -4  -6 55.4668 124.306   1
 -11   4  -6-21.5803 70.3412   3
 -11  -4  -7 485.168 220.300   1
 -11   4  -7 110.810 83.7780   3
  12   0 -15 14.6299 86.0318   4
  12   0 -15-150.285 124.907   2
  12   0 -14 86.7349 89.7041   4
  12   0 -14 253.642 154.513   2
  12   0 -13-62.6631 88.0885   4
  12   0 -13-26.5029 72.7244   2
  12   0 -12 658.386 196.338   4
  12   0 -12 369.178 144.368   2
  12   0 -11 12.3361 87.2855   4
  12   0 -11-48.0269 77.5429   2
  12   0 -10 210.456 118.505   4
  12   0 -10-92.4021 100.532   2
  12   0  -9-17.4211 77.0947   4
  12   0  -9 46.2037 79.3554   2
  12   0  -8 834.316 200.145   4
  12   0  -8 895.904 241.513   2
  12   0  -7 69.3206 108.126   2
  12   0  -7 57.3010 68.6549   4
  12   0  -6 5505.32 538.226   2
  12   0  -6 5862.77 513.209   4
  12   0  -5 43.7196 74.1553   2
 -12   0   5 39.6173 71.6022   1
  12   0  -5-32.6391 50.2014   4
  12   0  -4 4437.31 473.745   2
  12   0  -4 4041.30 401.601   4
 -12   0   3-22.3031 56.8669   1
  12   0  -3-83.3225 81.9087   4
 -12   0   2 243.849 118.050   3
 -12   0   2 221.151 99.9159   1
  12   0  -2 228.184 125.597   4
 -12   0   1 83.3206 64.3345   1
 -12   0   1-108.449 75.1263   3
  12   0  -1 24.7942 54.8812   4
 -12   0   0 237.720 88.4819   1
 -12   0   0 266.412 123.941   3
  12   0   0 536.378 155.766   4
 -12   0  -1 127.690 85.8194   1
 -12   0  -1-59.5220 90.8164   3
  12   0   1-31.9512 47.9003   4
 -12   0  -2 5890.90 424.601   1
  12   0   2 5938.16 462.858   4
 -12   0  -3-23.5742 68.6417   3
 -12   0  -3 191.428 84.3936   1
 -12   0  -4 30749.4 975.688   1
 -12   0  -4 30691.6 1073.95   3
 -12   0  -5-16.4209 51.5441   1
 -12   0  -5 143.660 71.0927   3
 -12   0  -6 103.891 75.0278   1
 -12   0  -6-80.9297 84.5241   3
 -12   0  -7 10.3819 54.7705   1
 -12   0  -7-17.7158 69.9147   3
 -12   0  -8 2216.75 286.419   1
 -12   0  -8 2743.46 333.969   3
 -12   0  -9 37.8090 47.7266   1
 -12   0  -9 18.1786 112.583   3
 -12   0 -10 313.253 125.822   1
 -12   0 -10 102.125 94.8105   3
 -12   0 -11 99.7059 60.2437   1
 -12   0 -11 13.1121 59.6999   3
 -12   0 -12 21.9873 64.5065   1
 -12   0 -12 134.557 118.242   3
 -12   0 -13-13.9394 64.0523   1
 -12   0 -13 24.7706 71.4783   3
 -12   0 -14 172.188 134.215   1
 -12   0 -14 113.437 110.336   3
  12   1 -15 224.956 195.285   4
  12  -1 -15-10.1519 66.6646   4
  12   1 -15 329.750 187.277   2
  12  -1 -15 161.749 114.461   2
  12   1 -14 223.542 183.395   4
  12  -1 -14 165.133 136.398   4
  12   1 -14 49.7310 80.6527   2
  12   1 -13 84.5510 147.556   4
  12  -1 -13-20.6792 97.3283   4
  12   1 -13 92.3559 97.2212   2
  12  -1 -13 91.8214 118.897   2
  12   1 -12 275.248 160.919   4
  12  -1 -12 345.043 145.550   4
  12   1 -12 180.379 163.015   2
  12  -1 -12 286.359 136.375   2
  12   1 -11 363.263 165.887   4
  12  -1 -11 581.747 171.378   4
  12   1 -11 278.201 149.078   2
  12  -1 -11 419.161 170.853   2
  12   1 -10-131.276 140.950   4
  12  -1 -10-1.79940 61.4002   4
  12   1 -10 274.569 145.043   2
  12  -1 -10 43.5513 95.1865   2
  12  -1  -9 162.049 121.552   4
  12   1  -9 179.805 153.379   2
  12  -1  -9 143.386 123.499   2
  12   1  -9 331.746 139.733   4
  12   1  -8 1669.79 319.806   2
  12   1  -8 1131.08 268.027   4
  12  -1  -8 1150.55 246.800   2
  12  -1  -8 1097.32 216.533   4
  12  -1  -7 859.801 223.240   2
  12   1  -7 1070.70 275.570   2
  12  -1  -7 1185.98 219.044   4
  12   1  -7 864.764 219.354   4
  12  -1  -6 1068.62 248.180   2
  12  -1  -6 1131.54 213.716   4
  12   1  -6 677.168 213.582   4
 -12  -1   5 1676.85 292.575   1
  12   1  -5 1593.51 285.791   4
  12  -1  -5 1395.80 261.389   2
  12  -1  -5 1081.75 201.547   4
  12  -1  -4 102.756 86.8225   4
  12  -1  -4 86.6396 76.3638   2
 -12  -1   4 46.7687 79.6781   1
 -12   1   4 265.694 106.694   3
 -12   1   4 229.089 117.673   1
  12   1  -4 100.039 89.0884   4
  12  -1  -3 681.384 185.458   2
 -12   1   3 823.164 175.631   1
 -12  -1   3 565.925 157.755   1
 -12   1   3 524.721 141.370   3
  12   1  -3 1117.71 235.428   4
  12  -1  -3 885.150 166.872   4
 -12  -1   2 57.3332 94.6146   1
  12  -1  -2-15.9675 75.8226   2
 -12   1   2 106.766 75.9803   3
 -12   1   2 15.9758 64.4870   1
  12   1  -2 52.5143 97.8473   4
  12  -1  -2 111.574 66.0206   4
  12  -1  -1 110.476 98.0560   2
 -12   1   1 29.0456 67.4401   1
 -12   1   1 139.389 83.7351   3
 -12  -1   1 20.1324 60.5122   1
  12   1  -1 43.7812 103.867   4
  12  -1  -1 64.6120 61.6907   4
 -12   1   0 7384.95 447.664   1
 -12  -1   0 7522.49 528.891   1
 -12   1   0 7142.85 497.245   3
  12   1   0 6833.46 541.667   4
  12  -1   0 7520.07 560.258   2
  12  -1   0 6575.38 397.081   4
 -12   1  -1 15546.0 636.485   1
 -12  -1  -1 16889.6 817.644   1
 -12   1  -1 15241.4 728.784   3
 -12  -1  -1 17025.6 863.595   3
  12   1   1 14738.8 787.228   4
  12  -1   1 17399.8 833.112   2
  12  -1   1 14917.7 599.290   4
 -12   1  -2 2560.23 265.557   1
 -12  -1  -2 3220.30 349.382   1
 -12   1  -2 2928.72 311.846   3
 -12  -1  -2 2986.41 363.546   3
  12  -1   2 2885.43 265.033   4
 -12   1  -3 979.740 175.754   1
 -12  -1  -3 848.527 192.903   1
 -12   1  -3 1025.47 192.652   3
 -12  -1  -3 1086.51 242.667   3
  12  -1   3 825.440 142.871   4
 -12   1  -4 68.0587 82.1415   1
 -12   1  -4 154.583 83.6034   3
 -12  -1  -4-58.0885 87.9837   3
 -12  -1  -4 113.672 77.8922   1
  12  -1   4-22.9427 39.6934   4
 -12   1  -5 98.2317 63.4143   1
 -12   1  -5 54.2473 59.4482   3
 -12  -1  -5 87.3990 77.2880   3
 -12  -1  -5-28.4692 55.7116   1
  12  -1   5 31.7742 46.9764   4
 -12   1  -6-63.7621 54.2574   1
 -12   1  -6 26.9974 91.2951   3
 -12  -1  -6 97.5363 81.8789   1
 -12   1  -7 382.942 113.015   1
 -12  -1  -7 792.663 178.991   1
 -12   1  -7 762.067 178.779   3
 -12  -1  -7 923.668 209.863   3
 -12  -1  -8 9296.90 613.990   1
 -12   1  -8 9944.09 635.549   3
 -12  -1  -8 9804.39 659.142   3
 -12   1  -8 9664.78 554.171   1
 -12   1  -9 439.372 137.653   1
 -12  -1  -9 75.4400 52.7565   1
 -12   1  -9 348.973 122.700   3
 -12  -1  -9 533.474 167.344   3
 -12   1 -10-17.1948 53.8685   1
 -12  -1 -10 81.9984 105.912   1
 -12   1 -10-104.222 82.7933   3
 -12  -1 -10 46.9001 71.4514   3
 -12   1 -11 245.944 104.683   1
 -12  -1 -11 82.0820 60.0153   1
 -12   1 -11 26.6465 77.1415   3
 -12  -1 -11 143.494 103.306   3
 -12   1 -12 364.481 131.714   1
 -12  -1 -12 579.174 189.370   1
 -12   1 -12 769.786 200.994   3
 -12  -1 -12 546.771 180.637   3
 -12   1 -13 265.508 132.416   1
 -12  -1 -13-18.8854 79.5728   1
 -12   1 -13 120.539 90.7355   3
 -12  -1 -13 322.736 130.824   3
  12   2 -14 986.168 298.532   4
  12  -2 -14 851.657 205.504   4
  12   2 -14 608.753 254.577   2
  12  -2 -14 1315.41 296.869   2
  12   2 -13 1427.99 336.644   2
  12   2 -13 1529.51 355.843   4
  12  -2 -13 1506.01 262.174   4
  12  -2 -13 1478.41 313.466   2
  12   2 -12 91.2149 139.456   4
  12  -2 -12 160.703 101.746   4
  12   2 -12-44.1989 78.8837   2
  12  -2 -12 214.799 142.303   2
  12  -2 -11-71.7781 79.0054   4
  12   2 -11-119.135 160.029   2
  12  -2 -11 158.026 120.853   2
  12   2 -11 259.674 178.751   4
  12   2 -10 1713.11 349.920   4
  12  -2 -10 1895.75 261.539   4
  12  -2 -10 1752.44 323.225   2
  12  -2  -9 66.0214 60.4768   4
  12   2  -9-41.8160 89.9377   2
  12  -2  -9 194.333 125.175   2
  12   2  -9 228.639 196.135   4
  12  -2  -8 157.533 83.0563   4
  12  -2  -8 125.719 115.963   2
  12   2  -8 121.518 97.8545   4
  12   2  -7 1268.32 293.113   4
  12  -2  -7 1535.72 277.312   2
  12  -2  -7 2220.36 260.749   4
  12  -2  -6 112.153 70.6590   4
  12  -2  -6 186.438 105.998   2
  12   2  -6 92.3753 117.568   4
 -12  -2   5 1111.97 256.452   1
 -12   2   5 834.970 186.918   3
  12  -2  -5 1033.25 236.469   2
  12  -2  -5 1038.10 179.198   4
  12   2  -5 618.653 225.616   4
  12  -2  -4-10.9498 49.9397   4
  12  -2  -4 90.9158 91.6698   2
 -12   2   4 91.8529 82.5892   3
 -12  -2   4 101.659 111.801   1
  12   2  -4 261.480 135.621   4
 -12   2   3 7489.58 504.438   3
 -12  -2   3 7882.00 639.981   1
 -12   2   3 8847.69 487.091   1
  12   2  -3 8302.05 684.937   4
  12  -2  -3 8457.72 586.164   2
  12  -2  -3 8042.29 428.038   4
 -12   2   2 20054.3 825.117   3
 -12   2   2 22094.2 743.184   1
 -12  -2   2 19722.9 964.444   1
  12   2  -2 19704.4 1017.84   4
  12  -2  -2 20399.1 911.034   2
  12  -2  -2 21430.7 680.037   4
  12  -2  -1 17.9129 50.3307   4
 -12  -2   1 6.80421 56.9117   1
 -12   2   1 6.57188 42.9311   1
 -12   2   1-10.1743 53.2819   3
  12   2  -1-28.1054 73.8123   4
  12  -2   0-18.1084 37.7410   4
 -12   2   0 25.9214 65.5068   1
  12  -2   0-153.933 112.152   2
 -12   2   0-4.55705 53.6272   3
 -12  -2   0 61.1927 62.0279   1
  12   2   0 42.8849 117.529   4
 -12   2  -1 1676.25 194.628   1
 -12  -2  -1 1530.29 272.545   1
 -12   2  -1 1568.81 223.065   3
  12  -2   1 1354.33 248.268   2
  12  -2   1 1609.58 159.842   4
  12  -2   2 224.410 64.0349   4
  12  -2   2 407.437 155.904   2
 -12  -2  -2 415.689 150.359   1
 -12   2  -2 341.974 115.029   3
 -12   2  -2 327.187 97.6347   1
  12  -2   3-9.12735 23.3134   4
  12  -2   3 138.844 100.249   2
 -12  -2  -3-70.3400 84.6653   1
 -12   2  -3 36.7813 50.1486   1
 -12   2  -3 33.9575 45.9916   3
 -12  -2  -4 80.6621 75.6187   1
  12  -2   4-8.27985 66.5604   2
 -12   2  -4 69.9368 55.6072   1
 -12   2  -4 68.0777 70.7283   3
  12  -2   4 22.4350 21.5598   4
  12  -2   5 203.266 106.331   2
 -12   2  -5 99.0878 73.9005   1
 -12   2  -5 68.8465 47.4658   3
 -12  -2  -5 68.6324 69.1883   3
 -12  -2  -5 65.9718 64.3727   1
  12  -2   6 68.9899 66.9693   2
 -12   2  -6 119.886 63.1603   1
 -12   2  -6 258.753 127.080   3
 -12  -2  -6 140.610 117.456   3
 -12  -2  -6 444.031 155.729   1
  12  -2   7 928.623 203.598   2
 -12  -2  -7 1011.85 224.508   1
 -12   2  -7 610.092 178.167   3
 -12  -2  -7 665.246 198.095   3
 -12   2  -7 716.899 158.756   1
 -12  -2  -8 1175.53 244.351   1
 -12   2  -8 939.188 207.619   3
 -12  -2  -8 1253.13 272.533   3
  12  -2   8 1314.84 249.213   2
 -12   2  -8 1113.22 194.783   1
 -12   2  -9 102.098 67.3235   1
 -12   2  -9-51.0001 59.1893   3
 -12  -2  -9 174.095 119.251   1
 -12  -2  -9 55.4367 113.121   3
 -12   2 -10 148.960 101.873   1
 -12  -2 -10 152.250 108.553   1
 -12   2 -10 174.022 123.168   3
 -12  -2 -10 18.7341 92.3215   3
 -12  -2 -11 469.599 165.454   1
 -12   2 -11 172.234 114.643   3
 -12  -2 -11 250.882 157.837   3
 -12   2 -11 365.994 143.016   1
 -12  -2 -12 260.872 135.735   1
 -12   2 -12 491.154 161.758   3
 -12  -2 -12 738.310 243.363   3
 -12   2 -12 450.904 152.987   1
  12   3 -11 59.2525 112.388   2
  12  -3 -11 262.298 128.175   4
  12  -3 -11-24.9445 71.6004   2
  12   3 -11-115.483 146.704   4
  12  -3 -10 101.834 102.983   4
  12  -3 -10 93.2933 94.3259   2
  12   3 -10 90.5949 122.276   4
  12  -3  -9 13.0162 70.3050   4
  12  -3  -9 142.697 111.184   2
  12   3  -9 203.333 148.046   4
  12  -3  -8 110.067 103.847   4
  12  -3  -8 26.1076 87.7487   2
  12   3  -8-61.7418 96.2451   4
  12  -3  -7 797.205 164.088   4
  12  -3  -7 603.883 204.029   2
  12   3  -7 454.605 221.509   4
  12   3  -6 3350.37 504.469   4
  12  -3  -6 4023.19 450.771   2
  12  -3  -6 4691.51 361.922   4
  12  -3  -5 721.096 194.456   2
 -12   3   5 854.673 193.705   3
  12  -3  -5 943.093 161.954   4
  12   3  -5 304.960 181.927   4
  12  -3  -4-4.38194 62.3585   4
  12  -3  -4 123.000 69.8846   2
 -12  -3   4-29.0566 116.082   1
 -12   3   4 64.6332 103.784   3
  12   3  -4-83.9734 106.309   4
 -12   3   3 1292.01 227.615   3
 -12  -3   3 1516.53 333.004   1
  12   3  -3 1342.95 325.489   4
  12  -3  -3 1807.47 298.281   2
  12  -3  -2 134.303 111.057   2
 -12   3   2 115.312 94.8826   3
  12   3  -2-79.0570 96.6819   4
  12  -3  -1 420.700 161.703   2
 -12  -3   1 30.2004 98.3332   1
 -12   3   1 393.874 126.693   3
  12   3  -1 549.742 199.988   4
 -12  -3   0 106.954 78.9441   1
  12  -3   0 15.2447 64.0943   2
 -12   3   0 61.9307 76.5812   3
  12   3   0 60.4894 101.793   4
  12  -3   1-53.9172 68.8840   2
 -12   3  -1 93.6358 88.9300   3
 -12  -3  -1-118.667 98.4064   1
  12  -3   2 270.925 136.174   2
 -12   3  -2 289.713 109.803   3
 -12  -3  -2 377.812 171.846   1
  12  -3   3 240.988 134.180   2
 -12  -3  -3 501.776 189.277   1
 -12   3  -3-25.7887 72.5240   3
  12  -3   4 517.901 145.806   2
 -12  -3  -4 550.881 198.395   1
 -12   3  -4 289.830 107.670   3
 -12   3  -5 227.324 87.7439   1
  12  -3   5 427.379 141.697   2
 -12  -3  -5 555.454 195.590   1
 -12   3  -5 553.273 162.800   3
 -12   3  -6 56.2430 68.1962   1
 -12  -3  -6 215.953 137.434   1
 -12   3  -6 194.452 111.855   3
 -12   3  -7 119.587 75.6285   1
 -12  -3  -7 76.0674 100.006   1
 -12   3  -7-25.5145 67.2814   3
 -12   3  -8 119.871 87.2336   1
 -12   3  -8 285.468 128.286   3
 -12  -3  -8 144.561 110.653   1
 -12   3  -9-40.6441 76.4171   3
 -12  -3  -9-135.315 121.704   1
 -12   3  -9 54.1988 65.3258   1
 -12   3 -10 51.4362 102.427   3
 -12  -3 -10 184.133 143.823   1
 -12   3 -10 62.6863 85.5879   1
  12  -4  -7-0.47524 92.8189   2
  12   4  -7 365.354 234.895   4
  12  -4  -6 392.672 179.394   2
  12   4  -6 158.900 137.374   4
  12  -4  -5-49.2959 89.0900   2
  12   4  -5 285.123 216.291   4
  12  -4  -4 279.250 148.804   2
  12   4  -4 499.786 230.281   4
  12  -4  -3-19.1470 65.5733   2
 -12  -4   3 134.720 156.877   1
  12   4  -3 82.5495 111.503   4
 -12  -4   2 64.2906 146.928   1
  12  -4  -2-6.54534 71.6703   2
 -12   4   2-4.98214 73.9364   3
  12   4  -2-30.2356 126.170   4
 -12  -4   1-35.6545 138.325   1
 -12   4   1 64.4734 84.8658   3
  12   4  -1 3.54839 123.672   4
 -12   4   0 3380.62 348.005   3
 -12  -4   0 5799.94 650.931   1
  12   4   0 3493.41 536.760   4
  12  -4   0 6228.51 532.403   2
  12  -4   1 87.4568 96.1679   2
 -12   4  -1 107.126 97.5465   3
 -12  -4  -1 92.7100 153.504   1
 -12  -4  -2-118.190 101.353   1
 -12   4  -2-53.7147 64.2458   3
 -12  -4  -3-23.3426 117.240   1
 -12   4  -3 37.3762 76.2839   3
 -12   4  -4 125.254 96.4391   3
 -12  -4  -4-68.4303 109.340   1
 -12   4  -5 515.581 167.257   3
 -12  -4  -5 49.7422 129.431   1
  13   0 -14 69.2628 112.131   4
  13   0 -14-57.5305 131.459   2
  13   0 -13 543.894 193.392   4
  13   0 -13 418.503 163.616   2
  13   0 -12-78.9096 116.232   4
  13   0 -12 155.011 135.081   2
  13   0 -11 163.478 105.975   4
  13   0 -11 176.814 144.668   2
  13   0 -10-111.144 99.6408   4
  13   0 -10 99.9509 125.776   2
  13   0  -9 10303.4 777.323   2
  13   0  -9 7855.71 625.910   4
  13   0  -8-14.1108 80.4837   4
  13   0  -8-88.4907 101.399   2
  13   0  -7 443.648 169.401   2
  13   0  -7 263.331 150.093   4
  13   0  -6 40.0890 74.5930   2
  13   0  -6 64.5753 71.3691   4
 -13   0   5 1638.96 289.258   1
  13   0  -5 1134.35 275.934   2
  13   0  -5 1048.34 216.065   4
  13   0  -4-12.0284 59.3894   2
 -13   0   4-4.39574 67.8084   1
  13   0  -4-0.34152 65.8886   4
 -13   0   3 7405.42 549.539   1
  13   0  -3 7272.43 639.489   2
  13   0  -3 8369.43 588.662   4
 -13   0   2-16.0467 63.3658   1
 -13   0   2-97.5251 85.5546   3
  13   0  -2 80.1403 88.8955   4
 -13   0   1 90.1928 77.5667   1
 -13   0   1 14.0954 94.6735   3
  13   0  -1 40.4074 61.8654   4
 -13   0   0 20.3289 61.8679   1
 -13   0   0 85.3065 97.2489   3
  13   0   0 267.299 296.947   4
 -13   0  -1 63.7219 79.9967   1
 -13   0  -1 156.472 121.865   3
  13   0   1 58.0058 65.5351   4
 -13   0  -2 11.1333 65.1278   3
  13   0   2 110.994 102.841   4
 -13   0  -2 101.341 69.8245   1
 -13   0  -3 2929.37 312.895   1
 -13   0  -3 2321.97 314.803   3
  13   0   3 2198.38 303.184   4
 -13   0  -4-7.25149 62.7761   3
 -13   0  -4 18.4234 77.6614   1
 -13   0  -5 30077.4 1031.55   1
 -13   0  -5 27438.3 1070.62   3
 -13   0  -6 10.4942 51.0978   1
 -13   0  -6 61.9734 78.3914   3
 -13   0  -7 3078.03 329.435   1
 -13   0  -7 2245.99 310.301   3
 -13   0  -8 54.3828 81.4178   1
 -13   0  -8-70.1130 70.2701   3
 -13   0  -9 232.798 123.594   1
 -13   0  -9 348.254 138.572   3
 -13   0 -10 20.3390 62.7054   1
 -13   0 -10-47.7540 72.0310   3
 -13   0 -11 80.1036 114.326   1
 -13   0 -11 111.583 86.6068   3
 -13   0 -12-36.3092 61.9924   1
 -13   0 -12-13.1599 67.5917   3
 -13   0 -13 40.8034 79.4278   1
 -13   0 -13 412.985 233.342   3
  13   1 -14 139.928 188.865   4
  13  -1 -14 452.911 195.759   4
  13   1 -14 1.81071 132.204   2
  13  -1 -14-23.0460 125.168   2
  13   1 -13 792.932 242.766   4
  13  -1 -13 1100.59 252.126   4
  13   1 -13 561.342 263.967   2
  13  -1 -13 1329.94 310.503   2
  13   1 -12 535.847 206.817   4
  13  -1 -12 40.3168 76.5582   4
  13   1 -12 443.995 222.138   2
  13  -1 -12 315.754 141.914   2
  13   1 -11 142.417 160.026   4
  13  -1 -11 47.8370 84.9521   4
  13   1 -11 64.5815 144.178   2
  13  -1 -11-105.904 81.6511   2
  13  -1 -10 333.568 147.626   4
  13   1 -10 590.838 228.268   2
  13  -1 -10 307.875 145.581   2
  13   1 -10 314.103 180.213   4
  13   1  -9 4784.37 588.607   2
  13   1  -9 3828.22 484.303   4
  13  -1  -9 3978.91 468.868   2
  13  -1  -9 4155.88 422.883   4
  13  -1  -8 52.3448 80.5653   4
  13  -1  -8-28.0553 67.1775   2
  13   1  -8-128.347 125.864   4
  13  -1  -7 977.159 199.598   4
  13   1  -7 1642.76 354.754   2
  13  -1  -7 1281.82 287.181   2
  13   1  -7 985.030 260.873   4
  13  -1  -6 516.726 148.061   4
  13  -1  -6 296.898 136.231   2
  13   1  -6 299.356 149.558   4
 -13  -1   5 1579.03 296.235   1
  13   1  -5 1803.19 321.845   4
  13  -1  -5 1770.47 305.832   2
  13  -1  -5 1465.39 228.529   4
  13  -1  -4 131.708 88.0119   4
  13  -1  -4 239.404 133.395   2
 -13  -1   4 252.799 123.140   1
 -13   1   4 319.453 148.076   1
  13   1  -4 211.593 125.725   4
  13  -1  -3 958.150 218.619   2
 -13  -1   3 518.907 153.116   1
 -13   1   3 735.097 174.944   1
 -13   1   3 743.625 173.300   3
  13   1  -3 556.102 194.622   4
  13  -1  -3 508.402 141.821   4
 -13   1   2 1508.30 240.352   1
 -13  -1   2 1266.51 236.789   1
 -13   1   2 1014.36 204.509   3
  13  -1  -2 1289.30 281.161   2
  13  -1  -2 1329.14 200.073   4
  13   1  -2 822.592 202.352   4
  13  -1  -1 129.276 108.659   2
 -13   1   1 421.256 122.475   1
 -13   1   1 223.571 124.826   3
 -13  -1   1 330.102 134.146   1
  13   1  -1 71.5813 105.625   4
  13  -1  -1 440.527 120.457   4
  13  -1   0 785.891 205.259   2
 -13   1   0 822.854 171.355   1
 -13  -1   0 459.900 128.432   1
 -13   1   0 634.165 158.421   3
  13   1   0 680.431 214.841   4
  13  -1   0 784.808 146.725   4
 -13   1  -1 15467.6 675.425   1
 -13  -1  -1 16414.2 851.659   1
 -13   1  -1 17269.5 803.416   3
 -13  -1  -1 18050.1 925.652   3
  13   1   1 17189.7 886.599   4
  13  -1   1 18605.1 941.142   2
  13  -1   1 14492.8 616.846   4
 -13   1  -2 4014.25 342.362   1
 -13  -1  -2 4301.52 421.734   1
 -13   1  -2 4663.33 423.340   3
 -13  -1  -2 4300.16 449.167   3
  13  -1   2 5381.97 495.317   2
  13  -1   2 4124.74 338.573   4
 -13  -1  -3 13.2315 62.8213   1
 -13   1  -3 204.247 97.3563   3
 -13   1  -3 52.8719 67.2052   1
 -13  -1  -3 1.16243 64.4039   3
  13  -1   3 157.797 86.7383   4
 -13   1  -4 36.0691 43.2262   1
 -13   1  -4 2.46863 50.5123   3
 -13  -1  -4 186.015 110.939   3
 -13  -1  -4 28.6290 54.4459   1
  13  -1   4 190.428 93.8486   4
 -13   1  -5 806.320 171.911   1
 -13  -1  -5 990.339 211.641   1
 -13   1  -5 690.606 173.015   3
 -13  -1  -5 843.106 219.342   3
  13  -1   5 598.998 150.190   4
 -13   1  -6 1597.18 228.567   1
 -13  -1  -6 1757.55 284.165   1
 -13   1  -6 1631.06 266.677   3
 -13  -1  -6 1758.59 320.541   3
  13  -1   6 1902.19 254.303   4
 -13   1  -7 43.5349 76.6735   1
 -13   1  -7 146.984 86.1409   3
 -13  -1  -7 85.6891 106.638   1
 -13  -1  -7 0.82661 78.5702   3
 -13   1  -8 1717.77 259.334   1
 -13  -1  -8 1769.67 290.728   1
 -13   1  -8 1795.49 290.401   3
 -13  -1  -8 1977.37 318.971   3
 -13  -1  -9 1410.23 259.602   1
 -13   1  -9 1505.42 271.915   3
 -13  -1  -9 1546.45 294.691   3
 -13   1  -9 1840.76 257.092   1
 -13   1 -10 224.007 115.019   1
 -13  -1 -10 46.6299 96.5039   1
 -13   1 -10-116.206 124.224   3
 -13  -1 -10 80.0472 91.6229   3
 -13   1 -11 248.349 127.912   1
 -13  -1 -11 217.672 135.550   1
 -13   1 -11 166.200 127.380   3
 -13  -1 -11 221.213 141.925   3
 -13   1 -12-73.5419 69.9026   1
 -13  -1 -12 156.122 143.874   1
 -13   1 -12-14.9202 73.8956   3
 -13  -1 -12 10.8258 84.4195   3
  13   2 -13 927.373 271.147   4
  13  -2 -13 654.412 193.534   4
  13   2 -13 822.842 271.046   2
  13  -2 -13 821.863 248.765   2
  13   2 -12 1233.63 306.327   4
  13   2 -12 755.373 293.460   2
  13  -2 -12 1191.20 246.841   4
  13  -2 -12 1348.00 299.704   2
  13  -2 -11 121.426 78.2205   4
  13   2 -11 279.403 191.683   2
  13  -2 -11 167.203 141.634   2
  13   2 -11-26.6376 113.877   4
  13  -2 -10-67.0736 74.8242   4
  13   2 -10 4.73241 123.549   2
  13  -2 -10 32.5077 74.6630   2
  13   2 -10 55.4268 130.692   4
  13  -2  -9 868.821 184.154   4
  13   2  -9 572.881 219.330   2
  13  -2  -9 911.057 246.558   2
  13   2  -9 611.205 245.669   4
  13  -2  -8 169.476 86.5332   4
  13  -2  -8 445.300 152.387   2
  13   2  -8 75.4442 133.557   4
  13  -2  -7 680.449 161.231   4
  13  -2  -7 723.488 217.261   2
  13   2  -7 879.431 264.671   4
  13  -2  -6 254.101 120.835   4
  13  -2  -6 147.465 104.555   2
  13   2  -6 213.517 172.869   4
  13  -2  -5 79.1030 79.9014   4
  13  -2  -5 115.166 122.548   2
 -13  -2   5 14.6204 101.438   1
  13   2  -5 85.7906 111.300   4
  13  -2  -4 55.1956 63.5813   4
  13  -2  -4 220.603 120.637   2
 -13   2   4 25.4554 52.5476   3
 -13  -2   4 0.98534 99.0912   1
  13   2  -4 297.651 169.561   4
 -13   2   3 2555.49 319.052   3
 -13  -2   3 1768.34 313.028   1
 -13   2   3 1897.78 242.888   1
  13   2  -3 2469.27 395.620   4
  13  -2  -3 2488.70 338.094   2
  13  -2  -3 2972.63 282.381   4
 -13   2   2 1466.52 252.014   3
 -13   2   2 1667.84 215.415   1
 -13  -2   2 1147.82 248.206   1
  13   2  -2 1735.18 374.901   4
  13  -2  -2 1418.05 265.391   2
  13  -2  -2 1634.21 201.412   4
 -13   2   1 1218.02 188.781   1
 -13   2   1 1241.84 218.275   3
 -13  -2   1 1441.87 275.230   1
  13   2  -1 1210.31 268.194   4
  13  -2  -1 1442.46 281.927   2
  13  -2  -1 1626.42 192.362   4
 -13   2   0 2172.80 243.390   1
 -13  -2   0 2274.45 343.233   1
 -13   2   0 2070.96 285.564   3
  13   2   0 1841.89 341.457   4
  13  -2   0 2080.50 310.442   2
  13  -2   0 2106.54 203.619   4
  13  -2   1 411.631 101.562   4
  13  -2   1 621.000 174.380   2
 -13  -2  -1 621.978 195.027   1
 -13   2  -1 620.063 163.066   3
 -13   2  -1 424.058 115.173   1
  13  -2   2-5.35951 63.2565   2
 -13  -2  -2 133.739 109.358   1
 -13   2  -2 48.1058 44.4213   3
 -13   2  -2 45.3748 44.5330   1
  13  -2   3 272.511 148.132   2
 -13  -2  -3 444.964 159.882   1
 -13   2  -3 525.813 126.403   1
 -13   2  -3 562.217 150.353   3
  13  -2   4 92.0867 104.328   2
 -13  -2  -4 67.6249 54.7542   1
 -13   2  -4 81.8408 75.5381   1
 -13   2  -4 32.8999 51.2905   3
 -13  -2  -5 102.924 83.3637   1
  13  -2   5 372.360 161.740   2
 -13   2  -5 188.520 90.7609   1
 -13   2  -5 410.785 139.607   3
 -13  -2  -5 103.193 108.231   3
  13  -2   6-67.7765 89.3024   2
 -13   2  -6 149.128 95.2222   1
 -13   2  -6 67.9858 57.8003   3
 -13  -2  -6 20.8357 84.1922   3
 -13  -2  -6 37.2992 64.4562   1
 -13   2  -7 88.1634 91.1834   1
 -13   2  -7-6.16312 61.3463   3
 -13  -2  -7 54.6542 93.3406   1
  13  -2   8 331.717 156.345   2
 -13   2  -8 422.854 132.519   1
 -13   2  -8 432.283 152.876   3
 -13  -2  -8 767.368 215.113   3
 -13  -2  -8 350.952 151.611   1
 -13   2  -9 249.428 121.462   1
 -13   2  -9 541.112 182.096   3
 -13  -2  -9 514.100 180.286   1
 -13  -2  -9 606.313 225.819   3
 -13   2 -10 340.271 148.319   1
 -13   2 -10 184.964 131.412   3
 -13  -2 -10 162.367 141.220   1
 -13  -2 -10 290.492 123.256   3
 -13   2 -11 168.184 102.453   1
 -13   2 -11 368.909 153.361   3
 -13  -2 -11 282.153 147.856   1
 -13  -2 -11 235.154 161.620   3
  13   3 -10 333.771 186.736   2
  13  -3 -10 190.544 114.141   4
  13  -3 -10 341.023 161.880   2
  13   3 -10 29.7966 159.570   4
  13  -3  -9 51.9064 77.1472   4
  13  -3  -9 86.4458 102.090   2
  13   3  -9 122.828 144.742   4
  13  -3  -8 190.977 104.862   4
  13  -3  -8 550.480 183.638   2
  13   3  -8 430.948 225.053   4
  13  -3  -7 480.417 147.856   4
  13  -3  -7 436.975 179.154   2
  13   3  -7 190.730 178.277   4
  13  -3  -6 1188.94 249.239   2
  13   3  -6 869.231 263.098   4
 -13   3   5 832.945 199.239   3
  13  -3  -5 1078.30 244.721   2
  13   3  -5 476.236 209.638   4
  13  -3  -4 478.719 163.693   2
 -13  -3   4 278.634 192.110   1
 -13   3   4-6.15945 64.3987   3
  13   3  -4 212.865 148.139   4
  13  -3  -3 120.308 99.4967   2
 -13   3   3 90.8903 112.300   3
 -13  -3   3-9.02136 111.559   1
  13   3  -3 321.591 169.721   4
 -13  -3   2 267.945 212.534   1
  13  -3  -2 388.070 163.745   2
 -13   3   2 227.185 112.710   3
  13   3  -2 275.125 189.232   4
  13  -3  -1 1021.59 240.824   2
 -13   3   1 533.735 142.698   3
 -13  -3   1 1048.22 262.416   1
  13   3  -1 1050.09 284.185   4
  13  -3   0 100.605 99.4060   2
 -13  -3   0 252.154 141.242   1
 -13   3   0 74.4226 61.0095   3
  13   3   0 234.758 155.155   4
 -13  -3  -1 941.581 246.020   1
 -13   3  -1 611.211 163.498   3
  13  -3   1 1120.26 243.694   2
  13  -3   2 175.937 114.906   2
 -13   3  -2 140.235 80.3125   3
 -13  -3  -2 222.715 138.399   1
  13  -3   3 739.885 208.773   2
 -13   3  -3 352.494 116.092   3
 -13  -3  -3 442.973 185.991   1
  13  -3   4 549.966 157.807   2
 -13  -3  -4 420.054 176.349   1
 -13   3  -4 554.692 174.758   3
 -13  -3  -5 27.7205 78.8371   1
 -13   3  -5 79.5972 107.195   3
 -13  -3  -6-214.280 132.992   1
 -13   3  -6 4.00527 70.0262   3
 -13  -3  -7 145.832 122.158   1
 -13   3  -7-99.5066 81.4995   3
 -13  -3  -8 26.7978 86.8086   1
 -13   3  -8 38.3917 58.5426   1
 -13   3  -8 82.0351 80.0534   3
 -13  -4   3 242.048 190.913   1
  13  -4  -3 280.929 139.965   2
  13   4  -3 380.228 208.698   4
  13  -4  -2-58.7065 85.4761   2
  13   4  -2-162.665 131.238   4
  13  -4  -1 102.216 96.9753   2
 -13  -4   1 241.907 167.218   1
 -13   4   1 179.169 112.845   3
  13   4  -1 196.527 136.719   4
  13  -4   0 433.718 163.012   2
 -13   4   0 88.7895 99.2862   3
  13   4   0 178.943 155.844   4
 -13  -4   0 318.609 183.924   1
 -13   4  -1 230.630 112.420   3
 -13  -4  -1 167.035 168.994   1
  14   0 -13 175.546 130.975   4
  14   0 -13 83.8665 112.468   2
  14   0 -12 544.367 213.813   4
  14   0 -12 399.642 191.818   2
  14   0 -11-70.8396 88.8127   4
  14   0 -11 69.2011 127.682   2
  14   0 -10 103.336 119.936   4
  14   0 -10-3.81496 70.5086   2
  14   0  -9 6.40014 65.8900   4
  14   0  -9 2.05874 84.5239   2
  14   0  -8 421.437 181.307   4
  14   0  -8 306.884 148.759   2
  14   0  -7 179.823 115.308   2
  14   0  -7 110.184 115.129   4
  14   0  -6 14108.2 920.390   2
  14   0  -6 12746.8 796.714   4
  14   0  -5-20.8020 71.4639   2
 -14   0   5 33.5747 102.254   1
  14   0  -5-5.36529 62.0222   4
  14   0  -4 629.492 207.359   2
 -14   0   4 692.839 221.827   1
  14   0  -4 779.272 188.160   4
  14   0  -3 6.28233 80.7222   2
 -14   0   3 53.9947 90.3833   1
  14   0  -3 112.179 123.119   4
 -14   0   2 2713.50 343.770   1
  14   0  -2 2311.11 314.543   4
 -14   0   1-62.6406 73.1078   1
 -14   0   1 144.807 91.6209   3
  14   0  -1-38.1772 74.0910   4
 -14   0   0 1154.03 216.919   1
 -14   0   0 795.868 208.133   3
  14   0   0 621.897 162.668   4
 -14   0  -1-45.3341 51.7388   1
 -14   0  -1 18.8097 91.4164   3
  14   0   1 74.3580 108.942   4
 -14   0  -2 153.564 91.0433   1
 -14   0  -2 318.405 131.329   3
  14   0   2 29.6481 83.1050   4
  14   0   3-2.74955 70.1540   4
 -14   0  -3 11.6699 65.5363   1
 -14   0  -4 270.616 118.199   3
 -14   0  -4 436.708 139.663   1
  14   0   4 308.732 120.120   4
 -14   0  -5-76.7811 73.0373   3
 -14   0  -5 7.22453 52.4495   1
 -14   0  -6 6760.02 527.567   1
 -14   0  -6 5382.79 512.727   3
 -14   0  -7 167.195 92.3267   1
 -14   0  -7 62.8149 96.2475   3
 -14   0  -8 508.389 158.710   1
 -14   0  -8 843.716 201.162   3
 -14   0  -9 90.1038 116.520   1
 -14   0  -9-7.53037 76.7146   3
 -14   0 -10 91.5020 104.907   1
 -14   0 -10 33.9532 100.663   3
 -14   0 -11 100.917 102.444   1
 -14   0 -11-15.6331 73.3131   3
  14   1 -13 45.2465 131.376   4
  14   1 -13 199.013 149.436   2
  14  -1 -13 127.055 97.6370   2
  14   1 -12 731.530 275.074   4
  14  -1 -12 766.679 214.904   4
  14   1 -12 941.079 300.470   2
  14  -1 -12 1195.30 278.056   2
  14   1 -11 935.341 275.070   4
  14  -1 -11 868.680 227.233   4
  14   1 -11 704.204 243.410   2
  14   1 -10 1205.82 288.537   4
  14   1 -10 692.991 229.920   2
  14  -1 -10 1404.96 285.935   2
  14  -1 -10 1310.99 260.405   4
  14  -1  -9 523.264 176.529   4
  14   1  -9 493.127 196.717   2
  14  -1  -9 662.805 222.529   2
  14   1  -9 621.344 252.609   4
  14   1  -8 2643.65 429.908   2
  14   1  -8 2124.67 379.281   4
  14  -1  -8 2053.59 356.838   2
  14  -1  -8 1484.84 252.896   4
  14  -1  -7 1002.83 213.169   4
  14   1  -7 1241.28 290.771   2
  14  -1  -7 803.350 255.090   2
  14   1  -7 847.329 246.509   4
  14   1  -6 1499.81 323.830   2
  14   1  -6 1759.89 345.650   4
  14  -1  -6 2265.62 362.314   2
  14  -1  -6 1940.02 280.674   4
  14  -1  -5 207.651 109.185   4
  14  -1  -5 342.810 154.130   2
 -14  -1   5 344.374 163.769   1
  14   1  -5 172.575 116.391   4
 -14  -1   4 2203.67 373.705   1
 -14   1   4 1935.85 300.063   1
  14   1  -4 1437.64 288.411   4
  14  -1  -4 1433.51 288.692   2
  14  -1  -4 1790.31 257.192   4
  14  -1  -3 964.051 238.002   2
 -14   1   3 590.072 171.829   3
 -14  -1   3 738.121 203.380   1
 -14   1   3 762.414 179.320   1
  14   1  -3 646.087 218.602   4
  14  -1  -3 759.482 173.264   4
  14  -1  -2 914.419 234.187   2
 -14  -1   2 708.091 193.074   1
 -14   1   2 1490.22 252.288   1
 -14   1   2 922.735 211.492   3
  14  -1  -2 1207.03 216.649   4
  14   1  -2 869.685 229.365   4
 -14   1   1 1283.22 210.038   1
 -14  -1   1 1190.12 240.876   1
 -14   1   1 1084.50 213.000   3
  14  -1  -1 1311.91 269.599   2
  14  -1  -1 1011.16 187.439   4
  14   1  -1 907.603 213.737   4
  14  -1   0 45.5327 78.1384   2
 -14   1   0-50.4298 59.7258   1
 -14  -1   0 100.655 94.2598   1
 -14   1   0 79.9913 92.0125   3
  14   1   0 148.156 111.451   4
  14  -1   0 93.3055 84.6061   4
  14  -1   1 135.840 138.291   2
 -14   1  -1 267.491 126.184   1
 -14  -1  -1 69.5616 104.353   1
 -14  -1  -1 30.0434 92.2332   3
  14   1   1 20.7579 68.5794   4
  14  -1   1 50.5178 51.8019   4
 -14   1  -2 3821.53 354.571   1
 -14  -1  -2 3538.51 405.373   1
 -14   1  -2 3374.21 380.654   3
 -14  -1  -2 4565.23 487.660   3
  14   1   2 3476.29 416.597   4
  14  -1   2 4744.03 502.577   2
  14  -1   2 3585.44 344.027   4
 -14  -1  -3 99.2452 88.6551   1
 -14   1  -3-13.0663 74.1587   3
 -14  -1  -3-62.0276 83.0987   3
 -14   1  -3-4.96432 52.8681   1
  14  -1   3 154.476 90.5289   4
 -14   1  -4 145.361 97.3255   3
 -14   1  -4-8.21722 48.3094   1
 -14  -1  -4 213.697 124.952   3
  14  -1   4 71.4898 60.3803   4
 -14  -1  -4-38.9766 72.2918   1
 -14   1  -5 71.0347 98.8038   1
 -14   1  -5 174.787 103.575   3
 -14  -1  -5 351.246 190.959   3
 -14  -1  -5 224.139 122.280   1
  14  -1   5 126.589 89.5113   4
 -14   1  -6 513.000 139.199   1
 -14   1  -6 710.417 172.830   3
 -14  -1  -6 846.723 238.618   3
 -14  -1  -6 658.937 195.736   1
  14  -1   6 345.816 135.889   4
 -14  -1  -7 1070.79 247.592   1
 -14   1  -7 692.769 167.602   1
 -14   1  -7 573.764 166.630   3
 -14  -1  -7 703.915 203.269   3
  14  -1   7 658.898 175.812   4
 -14   1  -8 174.004 105.412   1
 -14   1  -8 207.072 118.755   3
 -14  -1  -8 426.038 178.670   1
 -14  -1  -8 398.774 173.386   3
 -14   1  -9 1495.68 259.443   1
 -14  -1  -9 1924.90 324.537   1
 -14   1  -9 1611.40 304.055   3
 -14  -1  -9 2104.17 342.520   3
 -14   1 -10-9.07116 62.2898   1
 -14  -1 -10 105.423 126.403   1
 -14   1 -10 285.938 151.443   3
 -14  -1 -10 144.778 112.992   3
 -14   1 -11 110.659 92.4381   1
 -14  -1 -11 314.307 167.981   1
 -14   1 -11 173.226 137.845   3
 -14  -1 -11-20.1692 93.3185   3
  14  -2 -11 313.426 139.341   4
  14   2 -11 469.938 210.884   2
  14  -2 -11 799.731 254.724   2
  14   2 -11 400.706 225.265   4
  14  -2 -10 405.551 133.324   4
  14   2 -10 103.938 139.082   2
  14  -2 -10 619.483 221.903   2
  14   2 -10 387.537 208.960   4
  14  -2  -9-3.29131 65.9925   4
  14   2  -9 169.169 146.253   2
  14  -2  -9 83.4971 96.1486   2
  14   2  -9 204.488 147.368   4
  14  -2  -8 175.057 115.208   4
  14  -2  -8 85.8688 106.085   2
  14   2  -8 250.713 190.163   4
  14  -2  -7 747.042 177.709   4
  14  -2  -7 568.603 171.988   2
  14   2  -7 612.748 211.323   4
  14  -2  -6 457.432 140.517   4
  14  -2  -6 401.615 161.583   2
  14   2  -6 293.242 153.766   4
 -14  -2   5 72.3138 142.482   1
  14  -2  -5 225.564 106.705   4
  14  -2  -5 186.885 118.485   2
  14   2  -5 142.903 145.448   4
  14  -2  -4 18.6295 60.8273   4
  14  -2  -4 55.7849 76.7555   2
 -14   2   4 25.8533 93.1270   3
 -14  -2   4 19.4371 117.273   1
  14   2  -4-130.904 165.243   4
 -14  -2   3 647.331 199.943   1
  14  -2  -3 345.841 123.608   4
  14  -2  -3 364.037 154.589   2
 -14   2   3 436.991 148.146   3
  14   2  -3 517.335 199.676   4
 -14   2   2 3004.19 367.613   3
 -14  -2   2 3071.09 405.410   1
  14   2  -2 3010.65 451.861   4
  14  -2  -2 3817.15 451.016   2
  14  -2  -2 3283.57 304.844   4
  14  -2  -1 268.541 98.6955   4
  14  -2  -1 28.0387 83.8154   2
 -14  -2   1 92.4407 70.3409   1
 -14   2   1 197.226 115.645   3
  14   2  -1 246.381 149.818   4
  14  -2   0 96.8930 94.4257   2
 -14   2   0 6.19892 42.5382   1
 -14   2   0 26.6568 82.9807   3
  14   2   0 28.1480 110.586   4
 -14  -2   0 7.20964 66.1451   1
 -14   2  -1 1720.25 228.106   1
 -14  -2  -1 1765.62 309.445   1
 -14   2  -1 1743.67 275.553   3
  14   2   1 1713.62 314.488   4
  14  -2   1 1620.59 291.642   2
  14  -2   2 149.789 118.300   2
 -14  -2  -2 59.8780 72.8831   1
 -14   2  -2-63.4361 82.5302   3
 -14   2  -2 43.1871 69.2951   1
  14  -2   3-88.4632 100.028   2
 -14  -2  -3 57.7415 100.079   1
 -14   2  -3 32.7758 57.3957   3
 -14   2  -3 59.0694 71.0959   1
  14  -2   4 803.887 249.732   2
 -14  -2  -4 722.723 228.181   1
 -14   2  -4 755.624 154.438   1
 -14   2  -4 783.464 191.429   3
 -14  -2  -5 489.729 191.027   1
  14  -2   5 285.931 170.871   2
 -14   2  -5 166.342 82.2397   1
 -14   2  -5 263.435 125.830   3
 -14  -2  -6 167.509 119.084   1
  14  -2   6 15.2591 79.0892   2
 -14   2  -6 0.26451 70.6565   1
 -14   2  -6-115.695 61.9275   3
 -14  -2  -6 138.427 131.744   3
  14  -2   7 19.9093 100.011   2
 -14   2  -7-10.3691 54.9694   1
 -14   2  -7 25.6229 104.693   3
 -14  -2  -7 158.863 168.605   3
 -14  -2  -7 31.1272 94.1841   1
 -14   2  -8 106.544 86.2626   1
 -14   2  -8-22.7026 81.3284   3
 -14  -2  -8 53.9131 81.3198   3
 -14  -2  -8 20.0885 85.5276   1
 -14   2  -9 235.510 122.155   1
 -14   2  -9 23.5451 86.3724   3
 -14  -2  -9 223.469 152.059   3
 -14  -2  -9 274.038 139.232   1
  14  -3  -8 266.814 153.867   2
  14   3  -8 447.009 189.443   4
  14  -3  -7 5.18599 70.3198   2
  14   3  -7 84.5346 191.577   4
  14  -3  -6 1294.66 274.982   2
  14   3  -6 1130.46 310.720   4
  14  -3  -5 671.669 203.012   2
 -14   3   5 208.230 134.936   3
  14   3  -5 369.862 217.097   4
  14  -3  -4 79.9677 111.040   2
 -14   3   4 163.199 107.920   3
  14  -3  -3 260.095 151.491   2
 -14   3   3 128.817 104.523   3
 -14  -3   3 135.471 107.801   1
  14   3  -3 45.7763 86.6865   4
 -14  -3   2 77.3186 122.933   1
  14  -3  -2 271.590 153.060   2
 -14   3   2 170.671 152.919   3
  14   3  -2 128.426 139.749   4
  14  -3  -1-95.7698 97.6084   2
 -14   3   1-19.3688 76.9976   3
  14   3  -1-23.0721 131.265   4
  14  -3   0 31.7253 109.079   2
 -14  -3   0 144.680 164.647   1
 -14   3   0 178.062 117.978   3
  14   3   0 103.185 144.564   4
 -14  -3  -1 54.3901 107.387   1
 -14   3  -1 215.837 119.521   3
  14   3   1-14.0060 113.466   4
  14  -3   2 39.5801 96.0347   2
 -14   3  -2 33.7280 78.7285   3
 -14  -3  -2-31.6137 97.3345   1
  14  -3   3 873.026 245.434   2
 -14   3  -3 696.766 193.175   3
 -14  -3  -3 1124.10 286.274   1
 -14  -3  -4 3.16664 73.9825   1
 -14   3  -4 15.3142 85.7823   3
 -14  -3  -5 21.2513 82.2520   1
 -14   3  -5 97.9871 116.883   3
 -14  -3  -6 294.094 174.204   1
 -14   3  -6 129.741 120.451   3
  15   0 -11 269.573 151.569   4
  15   0 -11 643.313 250.025   2
  15   0 -10 39.3050 84.9416   4
  15   0 -10 225.184 198.392   2
  15   0  -9-19.4720 80.9844   4
  15   0  -9 33.2462 94.7335   2
  15   0  -8 83.5251 66.2537   4
  15   0  -8-42.9759 75.9314   2
  15   0  -7 1857.80 357.245   2
  15   0  -7 1883.82 322.027   4
  15   0  -6 189.536 122.674   2
  15   0  -6-88.0063 78.6601   4
 -15   0   5 3890.59 468.948   1
  15   0  -5 3622.26 494.323   2
  15   0  -5 3202.08 403.202   4
  15   0  -4-142.462 119.022   2
  15   0  -4 8.68506 64.8961   4
 -15   0   3 1771.96 305.014   1
  15   0  -3 1385.07 300.463   2
  15   0  -3 897.179 220.695   4
 -15   0   2 140.369 125.105   1
  15   0  -2 170.813 116.038   4
 -15   0   1-3.38840 95.5324   3
 -15   0   1 32.0110 75.8632   1
  15   0  -1-19.9684 78.1630   4
 -15   0   0 3.66927 69.3548   1
 -15   0   0 53.1312 102.032   3
  15   0   0 178.006 129.003   4
 -15   0  -1 87.9129 99.2700   1
 -15   0  -1 263.193 135.998   3
  15   0   1 487.536 169.119   4
 -15   0  -2-33.9095 86.3371   1
 -15   0  -2 80.3641 111.313   3
  15   0   2 99.3777 100.538   4
 -15   0  -3 743.474 173.292   1
 -15   0  -3 730.271 200.677   3
  15   0   3 906.868 214.099   4
 -15   0  -4-60.5669 89.5157   3
  15   0   4 52.4541 93.4766   4
 -15   0  -4-48.4537 74.8675   1
 -15   0  -5 2590.37 332.979   1
 -15   0  -5 2725.48 393.984   3
  15   0   5 2319.02 348.035   4
 -15   0  -6 33.8129 62.0339   3
 -15   0  -6-4.04859 71.8941   1
 -15   0  -7 146.387 86.6225   1
 -15   0  -7 83.2209 72.2728   3
 -15   0  -8 159.552 124.064   1
 -15   0  -8-28.0947 71.6844   3
 -15   0  -9 346.763 152.930   1
 -15   0  -9 71.3615 75.9931   3
  15   1 -11-34.7818 86.0964   4
  15  -1 -11 1.72711 110.517   4
  15   1 -11-97.9699 99.1634   2
  15   1 -10 239.507 151.215   4
  15  -1 -10 191.567 97.2301   4
  15   1 -10 397.742 199.103   2
  15  -1 -10 428.702 181.036   2
  15   1  -9 1969.74 387.802   2
  15   1  -9 1590.88 369.023   4
  15  -1  -9 1819.20 342.682   2
  15  -1  -9 1464.74 274.750   4
  15  -1  -8 28.3731 73.0259   4
  15   1  -8 289.658 182.563   2
  15  -1  -8 109.989 94.5558   2
  15   1  -8-63.7241 124.260   4
  15  -1  -7 234.324 129.161   4
  15   1  -7 370.247 191.178   2
  15  -1  -7 279.801 161.236   2
  15   1  -7 533.377 176.093   4
  15  -1  -6 168.294 86.7168   4
  15   1  -6 163.407 99.8852   2
  15  -1  -6 312.439 173.502   2
  15   1  -6 346.540 155.580   4
  15  -1  -5 21.5267 90.1509   4
  15  -1  -5 52.2909 77.4157   2
 -15  -1   5 70.0808 143.755   1
  15   1  -5 302.768 165.446   4
  15  -1  -4 518.492 161.867   4
  15  -1  -4 931.830 250.056   2
 -15   1   4 744.667 212.193   1
 -15  -1   4 797.179 241.119   1
  15   1  -4 871.248 250.786   4
  15  -1  -3 562.758 182.243   2
 -15   1   3 631.924 185.846   3
 -15  -1   3 633.072 185.751   1
 -15   1   3 526.432 173.725   1
  15   1  -3 177.500 157.970   4
  15  -1  -3 488.033 161.105   4
  15  -1  -2 802.280 243.916   2
 -15   1   2 710.446 178.469   1
 -15   1   2 1243.54 263.469   3
 -15  -1   2 1090.93 257.321   1
  15   1  -2 769.349 228.577   4
  15  -1  -2 813.838 190.236   4
 -15  -1   1 581.153 182.809   1
  15  -1  -1 644.340 212.258   2
 -15   1   1 584.883 189.049   3
 -15   1   1 179.019 94.9957   1
  15   1  -1 583.996 197.206   4
  15  -1  -1 612.627 158.325   4
  15  -1   0 77.1133 90.3388   2
 -15   1   0 28.0794 82.3740   1
 -15   1   0 319.752 173.445   3
 -15  -1   0 9.94731 67.5837   1
  15   1   0 56.7901 113.063   4
  15  -1   0 32.2357 83.6863   4
 -15   1  -1 1453.72 248.971   1
 -15  -1  -1 1109.72 236.392   1
 -15   1  -1 1765.01 301.636   3
  15   1   1 1329.10 292.842   4
  15  -1   1 1579.49 341.429   2
  15  -1   1 1255.18 208.530   4
 -15   1  -2 1514.96 261.116   1
 -15  -1  -2 1611.90 288.414   1
 -15  -1  -2 1457.76 305.034   3
 -15   1  -2 1036.65 233.209   3
  15  -1   2 1923.53 365.548   2
  15   1   2 1090.94 256.399   4
  15  -1   2 818.632 171.098   4
  15  -1   3 183.021 122.421   2
 -15  -1  -3 506.941 175.793   1
 -15   1  -3 427.689 144.477   3
 -15  -1  -3 731.969 216.105   3
  15   1   3 416.109 169.029   4
 -15   1  -3 386.652 145.617   1
  15  -1   3 432.522 147.279   4
 -15  -1  -4-47.7067 69.9025   1
 -15   1  -4 84.1417 115.965   3
 -15  -1  -4 79.5026 82.4364   3
 -15   1  -4 10.3099 52.4450   1
  15  -1   4 76.4079 68.4943   4
 -15   1  -5 210.638 114.179   3
 -15   1  -5 168.951 129.466   1
 -15  -1  -5 153.680 123.471   3
  15  -1   5 166.909 113.052   4
 -15  -1  -5 101.583 120.647   1
 -15   1  -6 28.8479 61.9129   1
 -15   1  -6 19.0108 66.9495   3
 -15  -1  -6 180.314 142.249   3
 -15  -1  -6 94.5067 88.3174   1
 -15   1  -7-35.0560 74.6203   1
 -15   1  -7-68.5898 90.1037   3
 -15  -1  -7 42.6924 130.870   3
 -15  -1  -7 162.954 160.480   1
 -15   1  -8 10.8454 62.5088   1
 -15   1  -8 173.600 129.958   3
 -15  -1  -8 107.768 117.154   3
 -15  -1  -8 33.3665 65.6801   1
 -15   1  -9 906.686 221.502   1
 -15  -1  -9 1129.08 266.664   1
 -15  -1  -9 1164.00 308.440   3
 -15   1  -9 993.744 237.969   3
  15  -2  -9 696.417 176.943   4
  15   2  -9 174.921 204.922   2
  15  -2  -9 852.013 230.937   2
  15   2  -9 388.313 223.318   4
  15  -2  -8 356.136 141.246   4
  15   2  -8 104.051 128.547   2
  15  -2  -8 92.6420 105.856   2
  15   2  -8 88.4895 168.328   4
  15  -2  -7 191.468 123.874   4
  15  -2  -7 182.165 161.532   2
  15   2  -7 173.092 126.630   4
  15  -2  -6 464.625 153.967   4
  15  -2  -6 645.814 196.171   2
  15   2  -6 486.014 210.105   4
  15  -2  -5 685.736 165.476   4
  15  -2  -5 667.958 225.108   2
 -15  -2   5 841.805 258.494   1
  15   2  -5 630.406 254.786   4
  15  -2  -4 129.545 95.3646   4
 -15  -2   4-5.02168 95.4347   1
  15  -2  -4 1.36913 64.4639   2
 -15   2   4 143.972 85.4500   3
  15   2  -4 95.7720 138.939   4
  15  -2  -3 20.2836 78.3143   4
 -15  -2   3-6.67572 81.8724   1
  15  -2  -3 117.566 101.258   2
 -15   2   3 9.64065 89.5960   3
  15   2  -3-20.5488 92.8622   4
  15  -2  -2 166.103 112.985   2
 -15   2   2 81.8607 92.4357   3
 -15  -2   2 278.977 142.561   1
  15   2  -2 100.369 159.835   4
 -15   2   1 2166.08 332.353   3
 -15  -2   1 2396.05 384.333   1
  15   2  -1 1781.09 361.641   4
  15  -2  -1 2558.35 408.977   2
 -15  -2   0 511.571 179.643   1
  15  -2   0 103.667 103.942   2
 -15   2   0 243.262 122.881   3
  15   2   0 219.451 125.220   4
  15  -2   1 251.084 146.619   2
 -15   2  -1 112.095 109.368   3
 -15  -2  -1 104.556 114.475   1
  15   2   1 130.000 96.8730   4
 -15   2  -2 526.395 152.344   1
  15  -2   2 980.257 269.320   2
 -15   2  -2 1008.83 236.606   3
 -15  -2  -2 912.367 246.646   1
  15   2   2 709.932 230.570   4
  15  -2   3 33.2678 75.3854   2
 -15  -2  -3 112.092 116.919   1
 -15   2  -3 47.0885 106.528   3
 -15   2  -3 23.5023 57.8676   1
  15  -2   4-58.6990 94.9633   2
 -15  -2  -4 40.7277 83.4576   1
 -15   2  -4-10.2461 55.8779   3
 -15   2  -4 100.307 90.5345   1
  15  -2   5 137.363 142.511   2
 -15  -2  -5 159.980 131.024   1
 -15   2  -5 96.3596 78.5135   1
 -15   2  -5 121.558 108.456   3
 -15  -2  -6 84.3905 125.598   1
  15  -2   6 122.384 125.706   2
 -15   2  -6 65.3607 80.6654   1
 -15   2  -6 36.8905 59.7507   3
 -15  -2  -7 84.1081 121.760   1
 -15   2  -7 3.57220 55.2957   1
 -15   2  -7 2.15486 71.1208   3
 -15  -2  -7 119.317 164.850   3
  15  -3  -4 136.152 126.852   2
 -15   3   4 143.957 108.591   3
 -15  -3   4 49.4642 145.671   1
  15   3  -4-96.9085 116.681   4
 -15  -3   3 125.387 173.764   1
  15  -3  -3 147.407 124.974   2
 -15   3   3 96.3647 115.913   3
  15   3  -3 11.7080 117.601   4
  15  -3  -2 537.228 205.422   2
 -15  -3   2 424.064 209.219   1
 -15   3   2 315.725 135.769   3
  15   3  -2 410.150 193.580   4
  15  -3  -1 402.704 185.502   2
 -15   3   1 114.227 107.391   3
 -15  -3   1 45.7148 92.1076   1
  15   3  -1 255.400 161.405   4
  15  -3   0 900.197 238.479   2
 -15  -3   0 505.321 210.461   1
 -15   3   0 564.840 175.808   3
  15   3   0 1045.56 310.977   4
 -15  -3  -1 141.292 117.885   1
  15  -3   1 178.666 130.926   2
 -15   3  -1 15.9957 70.6207   3
  15   3   1-12.0715 126.542   4
  15  -3   2 142.171 126.158   2
 -15   3  -2-29.8314 78.2212   3
  15   3   2 287.298 241.395   4
 -15  -3  -2 287.921 178.685   1
  16   0  -9 127.134 135.724   4
  16   0  -9-14.2722 79.3252   2
  16   0  -8 500.848 198.026   4
  16   0  -8 316.336 199.340   2
  16   0  -7 129.723 137.105   2
  16   0  -7-55.8454 105.199   4
  16   0  -6 171.421 155.797   2
  16   0  -6 536.544 233.805   4
  16   0  -5-9.19746 133.071   2
 -16   0   5 9.60768 94.3225   1
  16   0  -5 31.8160 90.6027   4
  16   0  -4 207.720 197.717   2
 -16   0   4 44.9002 75.6185   1
  16   0  -4-23.5561 74.3366   4
  16   0  -3 198.610 174.368   2
 -16   0   3 83.3585 118.982   1
  16   0  -3 10.1466 78.1661   4
  16   0  -2 222.935 165.722   2
 -16   0   2 368.621 137.157   1
  16   0  -2 179.347 119.055   4
  16   0  -1 65.4524 101.666   4
 -16   0   1 74.2394 107.501   1
 -16   0   0 179.649 106.520   1
 -16   0   0 417.095 190.845   3
  16   0   0 378.334 149.657   4
 -16   0  -1 7.72698 86.4881   1
 -16   0  -1 240.459 137.771   3
  16   0   1-35.4651 95.8207   4
 -16   0  -2 114.987 115.506   1
 -16   0  -2-62.6364 103.436   3
  16   0   2 61.5848 95.7459   4
 -16   0  -3 6.66588 62.5426   1
 -16   0  -3-113.859 93.2525   3
  16   0   3-30.0301 76.6857   4
 -16   0  -4 237.236 130.278   1
 -16   0  -4 308.145 158.648   3
  16   0   4 166.294 127.649   4
 -16   0  -5-229.309 134.104   3
 -16   0  -5 154.828 121.024   1
  16   0   5-134.809 134.212   4
 -16   0  -6 749.291 214.455   3
 -16   0  -6 749.646 196.720   1
  16   0   6 845.335 248.491   4
 -16   0  -7 52.0876 118.742   3
 -16   0  -7 195.899 127.176   1
  16  -1  -9 268.623 145.520   4
  16   1  -9 20.4199 105.873   2
  16  -1  -9 136.056 134.197   2
  16   1  -9 209.426 197.106   4
  16  -1  -8 571.183 168.920   4
  16   1  -8 448.510 210.063   2
  16  -1  -8 777.611 260.341   2
  16   1  -8 735.670 265.601   4
  16  -1  -7 682.898 208.679   4
  16   1  -7 510.554 231.541   2
  16  -1  -7 683.908 241.313   2
  16   1  -7 430.914 212.647   4
  16  -1  -6 457.137 167.027   4
  16   1  -6 600.404 225.608   2
  16  -1  -6 442.125 194.780   2
  16   1  -6 389.764 194.089   4
  16  -1  -5 126.064 111.344   4
  16   1  -5 25.1775 125.362   2
  16  -1  -5 140.131 139.631   2
 -16  -1   5 190.878 150.380   1
  16   1  -5 411.162 210.048   4
  16  -1  -4 510.226 167.204   4
  16  -1  -4 414.585 195.414   2
 -16   1   4 964.259 249.574   1
 -16  -1   4 824.122 256.990   1
  16   1  -4 643.041 225.163   4
  16  -1  -3 183.012 121.033   4
 -16   1   3 218.574 134.144   1
  16  -1  -3 129.972 121.771   2
 -16  -1   3 196.741 151.943   1
  16   1  -3 89.5307 115.274   4
  16  -1  -2 188.481 134.262   2
 -16   1   2 79.1563 85.3217   1
 -16  -1   2 90.6741 71.4034   1
 -16   1   2 1.74321 69.8232   3
  16   1  -2 32.9912 116.179   4
  16  -1  -2 343.959 145.134   4
  16  -1  -1-4.96889 77.0217   2
 -16  -1   1 49.7233 83.4901   1
 -16   1   1 48.0248 69.3992   3
  16   1  -1-147.912 102.632   4
  16  -1  -1 228.596 144.619   4
 -16   1   1 115.565 104.251   1
  16  -1   0 171.741 162.663   2
 -16   1   0 11.7792 53.1411   1
 -16   1   0-8.32257 74.2816   3
 -16  -1   0 71.8991 115.435   1
  16   1   0 19.0465 108.711   4
  16  -1   0 136.433 106.029   4
  16  -1   1 403.079 196.451   2
 -16   1  -1 251.933 107.714   1
 -16  -1  -1 139.465 128.925   1
 -16   1  -1 445.055 143.309   3
  16   1   1 403.283 159.873   4
  16  -1   1 236.662 116.983   4
  16  -1   2 5.93577 114.453   2
 -16   1  -2 72.2517 106.664   1
 -16  -1  -2 299.044 150.022   1
 -16   1  -2 165.110 113.025   3
 -16  -1  -2 463.061 193.279   3
  16   1   2 9.15061 102.414   4
  16  -1   2 107.688 107.051   4
 -16   1  -3 68.7050 79.9350   1
  16  -1   3 152.277 151.377   2
 -16  -1  -3 12.8914 68.4639   1
 -16   1  -3 86.7027 95.1443   3
 -16  -1  -3 122.773 123.635   3
  16   1   3-50.2524 93.6664   4
  16  -1   4 655.238 275.512   2
 -16  -1  -4 193.766 136.184   1
 -16   1  -4 121.585 121.156   3
 -16  -1  -4 298.054 137.805   3
  16   1   4 360.416 181.775   4
 -16   1  -4 457.030 168.238   1
 -16  -1  -5 182.594 118.652   1
 -16   1  -5 354.018 154.911   3
 -16  -1  -5 73.2182 133.574   3
 -16   1  -5 58.5863 81.8203   1
 -16   1  -6 72.0265 101.960   3
 -16   1  -6 31.3034 67.8020   1
 -16  -1  -6 197.497 142.601   3
 -16  -1  -6 90.9135 96.0331   1
  16  -2  -6 439.134 189.169   2
  16   2  -6-24.0355 141.366   4
  16  -2  -5 205.088 156.009   2
 -16  -2   5 167.567 187.407   1
  16   2  -5 31.0892 92.0145   4
  16  -2  -4 431.154 170.096   2
 -16  -2   4 377.213 169.386   1
  16   2  -4 375.254 217.250   4
  16  -2  -3 177.219 116.080   2
 -16  -2   3 206.695 177.244   1
 -16   2   3-6.39494 69.6962   3
  16   2  -3 170.740 157.972   4
  16  -2  -2-72.6629 94.4468   2
 -16   2   2-3.71800 70.0050   3
 -16  -2   2 121.935 124.122   1
  16   2  -2 125.544 133.848   4
  16  -2  -1 220.011 145.445   2
 -16   2   1 4.78405 82.4252   3
  16   2  -1 60.1853 185.951   4
 -16  -2   0 204.385 146.726   1
  16  -2   0 207.081 154.496   2
 -16   2   0 142.822 122.593   3
  16   2   0 105.136 117.928   4
  16  -2   1 131.140 93.2473   2
 -16   2  -1 238.911 127.563   3
  16   2   1 70.0821 134.066   4
 -16  -2  -1 70.9655 108.109   1
  16  -2   2 164.746 151.417   2
 -16   2  -2 91.2818 112.362   3
 -16  -2  -2 415.737 192.241   1
  16   2   2 371.264 195.233   4
  16  -2   3 462.419 189.557   2
 -16  -2  -3 180.537 129.713   1
 -16   2  -3 63.6918 94.7969   3
  16   2   3 115.074 143.443   4
  16  -2   4 842.289 280.127   2
 -16  -2  -4 390.706 174.603   1
 -16   2  -4 596.351 213.460   3
  17   0  -6 107.345 141.730   2
  17   0  -6 184.193 136.253   4
 -17   0   5 3015.84 460.034   1
  17   0  -5 3015.19 499.287   2
  17   0  -5 1716.54 339.419   4
 -17   0   4 309.455 175.172   1
  17   0  -4 31.4811 93.8893   2
  17   0  -4 124.775 137.270   4
  17   0  -3 129.569 141.335   2
  17   0  -3 88.3236 122.741   4
 -17   0   3 51.5898 86.4082   1
  17   0  -2-72.7097 122.200   2
 -17   0   2 76.0668 88.9190   1
  17   0  -2 13.7967 88.1351   4
  17   0  -1 220.439 173.668   2
 -17   0   1 229.466 133.275   1
  17   0  -1 471.296 180.247   4
 -17   0   0 96.5880 85.4154   3
 -17   0   0 19.6970 112.135   1
  17   0   0-24.8830 76.4193   4
 -17   0  -1 1649.49 292.045   1
 -17   0  -1 2049.85 357.733   3
  17   0   1 1746.68 311.071   4
 -17   0  -2-24.3627 92.4924   1
 -17   0  -2 98.1001 124.860   3
  17   0   2 33.3610 85.9612   4
 -17   0  -3 168.468 122.696   1
 -17   0  -3-74.6084 116.255   3
 -17   0  -4-38.6683 90.0904   1
 -17   0  -4 322.317 168.688   3
  17   0   4 72.2889 123.764   4
  17  -1  -5 136.471 119.123   4
  17   1  -5-66.4583 128.124   2
  17  -1  -5 75.0147 122.412   2
 -17  -1   5 57.5559 122.975   1
  17   1  -5 17.3430 96.1607   4
  17  -1  -4 7.57173 76.6979   4
 -17  -1   4 62.2709 125.836   1
  17  -1  -4 150.961 128.661   2
  17   1  -4-53.6569 122.062   4
  17  -1  -3 707.274 199.485   4
 -17  -1   3 1191.87 286.547   1
  17  -1  -3 962.681 297.888   2
  17   1  -3 1053.19 270.621   4
  17  -1  -2 389.350 183.474   2
 -17  -1   2 367.678 189.673   1
 -17   1   2 317.958 136.543   1
 -17   1   2 477.190 174.670   3
  17   1  -2 605.424 220.536   4
  17  -1  -2 240.890 122.359   4
  17  -1  -1 636.281 217.355   2
 -17   1   1 465.409 158.145   1
 -17  -1   1 171.018 130.196   1
 -17   1   1 369.560 179.995   3
  17   1  -1 486.610 198.482   4
  17  -1  -1 206.504 106.904   4
  17  -1   0 489.282 237.712   2
 -17   1   0-26.2250 86.7208   3
 -17   1   0 134.166 108.793   1
  17   1   0 175.130 160.151   4
 -17  -1   0 233.965 164.139   1
  17  -1   1-3.23358 126.659   2
 -17   1  -1 92.4576 108.468   1
 -17   1  -1 26.7024 70.0728   3
 -17  -1  -1 93.5171 92.6901   1
  17   1   1 137.302 138.416   4
  17  -1   2 266.541 206.970   2
 -17   1  -2 53.6483 85.2040   1
 -17  -1  -2 188.603 139.610   1
 -17   1  -2 311.823 170.747   3
  17   1   2 315.765 192.871   4
  17  -1   3 423.520 222.396   2
 -17   1  -3 237.657 128.790   1
 -17  -1  -3 265.649 147.221   1
 -17   1  -3 152.762 133.451   3
 -17  -1  -3 204.083 174.140   3
  17   1   3 533.999 218.941   4
   0   0   0    0.00    0.00   0

TITL Octyl_Mo in P2(1)/n
REM P2(1)/n (#14 in standard setting)
CELL 0.71073  14.675251   4.955546  17.118332  90.0000  93.4316  90.0000
ZERR    4.00   0.001316   0.000595   0.001334   0.0000   0.0077   0.0000
LATT  1
SYMM -x+1/2, y+1/2,-z+1/2
SFAC C H O
UNIT 48.00 72.00 12.00
TREF
HKLF 4
END
;
_shelx_hkl_checksum              36922

