####################################################################### 
# 
# This file contains crystal structure data downloaded from the 
# Cambridge Structural Database (CSD) hosted by the Cambridge 
# Crystallographic Data Centre (CCDC).
# 
# Full information about CCDC data access policies and citation 
# guidelines are available at http://www.ccdc.cam.ac.uk/access/V1 
# 
# Audit and citation data items may have been added by the CCDC. 
# Please retain this information to preserve the provenance of 
# this file and to allow appropriate attribution of the data. 
# 
#######################################################################

data_34dichlorobenzhydrazide
_audit_block_doi                 10.5517/ccdc.csd.cc25w75h
_database_code_depnum_ccdc_archive 'CCDC 2022166'
loop_
_citation_id
_citation_doi
_citation_year
1 10.1021/acs.cgd.0c01119 2021
loop_
_audit_author_name
_audit_author_address
'Naba Kamal Nath'
;National Institute of Technology Meghalaya
India
;
_audit_update_record             
;
2020-08-07 deposited with the CCDC.	2025-11-11 downloaded from the CCDC.
;
_audit_creation_date             2020-05-19
_audit_creation_method           
;
Olex2 1.2
(compiled 2018.05.29 svn.r3508 for OlexSys, GUI svn.r5506)
;
_chemical_formula_moiety         'C7 H6 Cl2 N2 O'
_chemical_formula_sum            'C7 H6 Cl2 N2 O'
_chemical_formula_weight         205.04
_chemical_absolute_configuration unk
_chemical_oxdiff_formula         'C H N O Cl'
loop_
_atom_type_symbol
_atom_type_scat_dispersion_real
_atom_type_scat_dispersion_imag
_atom_type_scat_Cromer_Mann_a1
_atom_type_scat_Cromer_Mann_a2
_atom_type_scat_Cromer_Mann_a3
_atom_type_scat_Cromer_Mann_a4
_atom_type_scat_Cromer_Mann_b1
_atom_type_scat_Cromer_Mann_b2
_atom_type_scat_Cromer_Mann_b3
_atom_type_scat_Cromer_Mann_b4
_atom_type_scat_Cromer_Mann_c
_atom_type_scat_source
_atom_type_scat_dispersion_source
H 0.00000 0.00000 0.49300 0.32291 0.14019 0.04081 10.51090 26.12570 3.14236
57.79970 0.0030380000826
'International Tables Volume C Table 6.1.1.4 (pp. 500-502)'
'Henke, Gullikson and Davis, At. Data and Nucl. Data Tables, 1993, 54, 2'
C 0.00347 0.00161 2.31000 1.02000 1.58860 0.86500 20.84390 10.20750 0.56870
51.65120 0.215599998832
'International Tables Volume C Table 6.1.1.4 (pp. 500-502)'
'Henke, Gullikson and Davis, At. Data and Nucl. Data Tables, 1993, 54, 2'
Cl 0.14873 0.16029 11.46040 7.19640 6.25560 1.64550 0.01040 1.16620 18.51940
47.77840 -9.55739974976
'International Tables Volume C Table 6.1.1.4 (pp. 500-502)'
'Henke, Gullikson and Davis, At. Data and Nucl. Data Tables, 1993, 54, 2'
O 0.01158 0.00611 3.04850 2.28680 1.54630 0.86700 13.27710 5.70110 0.32390
32.90890 0.250800013542
'International Tables Volume C Table 6.1.1.4 (pp. 500-502)'
'Henke, Gullikson and Davis, At. Data and Nucl. Data Tables, 1993, 54, 2'
N 0.00653 0.00323 12.21260 3.13220 2.01250 1.16630 0.00570 9.89330 28.99750
0.58260 -11.5290002823
'International Tables Volume C Table 6.1.1.4 (pp. 500-502)'
'Henke, Gullikson and Davis, At. Data and Nucl. Data Tables, 1993, 54, 2'

_space_group_crystal_system      orthorhombic
_space_group_IT_number           33
_space_group_name_H-M_alt        'P n a 21'
_space_group_name_Hall           ' P 2c -2n'
loop_
_space_group_symop_id
_space_group_symop_operation_xyz
1 x,y,z
2 -x,-y,z+1/2
3 -x+1/2,y+1/2,z+1/2
4 x+1/2,-y+1/2,z

_symmetry_Int_Tables_number      33
_cell_length_a                   12.2108(5)
_cell_length_b                   3.8608(2)
_cell_length_c                   35.1524(15)
_cell_angle_alpha                90
_cell_angle_beta                 90
_cell_angle_gamma                90
_cell_volume                     1657.21(13)
_cell_formula_units_Z            8
_cell_measurement_reflns_used    6417
_cell_measurement_temperature    296.4(4)
_cell_measurement_theta_max      26.3600
_cell_measurement_theta_min      2.3080
_exptl_absorpt_coefficient_mu    0.730
_exptl_absorpt_correction_T_max  1.00000
_exptl_absorpt_correction_T_min  0.76067
_exptl_absorpt_correction_type   multi-scan
_exptl_absorpt_process_details   
;
CrysAlisPro 1.171.40.35a (Rigaku Oxford Diffraction, 2018)
Empirical absorption correction using spherical harmonics,
 implemented in SCALE3 ABSPACK scaling algorithm.
;
_exptl_crystal_colour            colourless
_exptl_crystal_description       plate
_exptl_crystal_density_diffrn    1.6435
_exptl_crystal_F_000             834.6453
_exptl_crystal_size_max          0.32
_exptl_crystal_size_mid          0.30
_exptl_crystal_size_min          0.09
_diffrn_reflns_av_R_equivalents  0.0726
_diffrn_reflns_av_unetI/netI     0.0440
_diffrn_reflns_limit_h_max       15
_diffrn_reflns_limit_h_min       -15
_diffrn_reflns_limit_k_max       4
_diffrn_reflns_limit_k_min       -4
_diffrn_reflns_limit_l_max       43
_diffrn_reflns_limit_l_min       -44
_diffrn_reflns_number            20762
_diffrn_reflns_theta_full        26.9690
_diffrn_reflns_theta_max         26.97
_diffrn_reflns_theta_min         2.32
_diffrn_ambient_environment      air
_diffrn_ambient_temperature      296.4(4)
_diffrn_detector                 'CCD plate'
_diffrn_detector_area_resol_mean 10.0000
_diffrn_detector_type            HyPix3000
_diffrn_measured_fraction_theta_full 0.9565
_diffrn_measured_fraction_theta_max 0.9547
_diffrn_measurement_details      
;
List of Runs (angles in degrees, time in seconds):

  # Type    Start    End  Width  t~exp~   \w     \q     \k     \f   Frames
#--------------------------------------------------------------------------
  1  \w     -7.00  27.00   0.50   25.00    --   16.22  30.00 -30.00   68
  2  \w      1.00  45.00   0.50   25.00    --  -14.97  61.00   0.00   88
  3  \w     56.00  82.00   0.50   25.00    --   16.22  30.00 -30.00   52
  4  \w     30.00  55.00   0.50   25.00    --  -14.97  61.00-120.00   50
  5  \w    -10.00  82.00   0.50   25.00    --   16.22  61.00-150.00  184
  6  \w    -30.00  42.00   0.50   25.00    --  -14.97 -15.00 -90.00  144
  7  \w     45.00  71.00   0.50   25.00    --   16.22-142.00 -14.00   52
  8  \w    -36.00  21.00   0.50   25.00    --  -14.97 -94.00   0.00  114
  9  \w    -36.00  -8.00   0.50   25.00    --  -14.97 -94.00  90.00   56
 10  \w     20.00  67.00   0.50   25.00    --   16.22-128.00 155.00   94
 11  \w     11.00  81.00   0.50   25.00    --   16.22  45.00  90.00  140
 12  \w    -43.00  -9.00   0.50   25.00    --  -14.97  61.00   0.00   68
 13  \w    -68.00 -43.00   0.50   25.00    --  -14.97 142.00  41.00   50
 14  \w    -57.00 -28.00   0.50   25.00    --  -14.97 125.00   0.00   58
 15  \w    -89.00 -47.00   0.50   25.00    --  -14.97 -15.00 -90.00   84
 16  \w    -84.00   3.00   0.50   25.00    --  -14.97 -45.00 -90.00  174
 17  \w    -75.00 -50.00   0.50   25.00    --  -14.97 -77.00-180.00   50
 18  \w    -39.00   2.00   0.50   25.00    --  -14.97 -77.00-180.00   82
 19  \w    -32.00  22.00   0.50   25.00    --  -14.97 -94.00-180.00  108
 20  \w    -67.00 -30.00   0.50   25.00    --  -14.97 128.00-128.00   74
 21  \w    -81.00 -23.00   0.50   25.00    --  -14.97 -61.00  90.00  116
 22  \w    -94.00  44.00   0.50   25.00    --  -14.97 -15.00 120.00  276
;
_diffrn_measurement_device       'four-circle diffractometer'
_diffrn_measurement_device_type  
'XtaLAB Synergy, Single source at offset/far, HyPix3000'
_diffrn_measurement_method       '\w scans'
_diffrn_orient_matrix_type       
'CrysAlisPro convention (1999,Acta A55,543-557)'
_diffrn_orient_matrix_UB_11      0.0135507000
_diffrn_orient_matrix_UB_12      -0.0195867000
_diffrn_orient_matrix_UB_13      0.0112798000
_diffrn_orient_matrix_UB_21      -0.0564043000
_diffrn_orient_matrix_UB_22      -0.0047585000
_diffrn_orient_matrix_UB_23      -0.0080927000
_diffrn_orient_matrix_UB_31      0.0033348000
_diffrn_orient_matrix_UB_32      -0.0009949000
_diffrn_orient_matrix_UB_33      -0.1831102000
_diffrn_radiation_monochromator  mirror
_diffrn_radiation_probe          x-ray
_diffrn_radiation_type           'Mo K\a'
_diffrn_radiation_wavelength     0.71073
_diffrn_source                   'micro-focus sealed X-ray tube'
_diffrn_source_type              'PhotonJet (Mo) X-ray Source'
_reflns_Friedel_coverage         0.938
_reflns_limit_h_max              15
_reflns_limit_h_min              -15
_reflns_limit_k_max              4
_reflns_limit_k_min              -4
_reflns_limit_l_max              43
_reflns_limit_l_min              -44
_reflns_number_gt                2867
_reflns_number_total             3434
_reflns_odcompleteness_completeness 99.76
_reflns_odcompleteness_iscentric 1
_reflns_odcompleteness_theta     26.32
_reflns_threshold_expression     I>=2u(I)
_computing_cell_refinement       'CrysAlisPro 1.171.40.35a (Rigaku OD, 2018)'
_computing_data_collection       'CrysAlisPro 1.171.40.35a (Rigaku OD, 2018)'
_computing_data_reduction        'CrysAlisPro 1.171.40.35a (Rigaku OD, 2018)'
_computing_molecular_graphics    'Olex2 (Dolomanov et al., 2009)'
_computing_publication_material  'Olex2 (Dolomanov et al., 2009)'
_computing_structure_refinement  'olex2.refine (Bourhis et al., 2015)'
_computing_structure_solution    'SIR2004 (Burla et al.,  2007)'
_refine_diff_density_max         1.5538
_refine_diff_density_min         -0.4563
_refine_diff_density_rms         0.1393
_refine_ls_abs_structure_details 
'Flack, H. D. (1983). Acta Cryst. A39, 876-881.'
_refine_ls_abs_structure_Flack   0.5(2)
_refine_ls_d_res_high            0.7836
_refine_ls_d_res_low             8.7881
_refine_ls_goodness_of_fit_ref   1.0396
_refine_ls_hydrogen_treatment    constr
_refine_ls_matrix_type           full
_refine_ls_number_constraints    22
_refine_ls_number_parameters     219
_refine_ls_number_reflns         3434
_refine_ls_number_restraints     1
_refine_ls_R_factor_all          0.0914
_refine_ls_R_factor_gt           0.0804
_refine_ls_restrained_S_all      1.0396
_refine_ls_shift/su_max          0.0004
_refine_ls_shift/su_mean         0.0001
_refine_ls_structure_factor_coef Fsqd
_refine_ls_weighting_details     
'w=1/[\s^2^(Fo^2^)+(0.1493P)^2^+2.0263P] where P=(Fo^2^+2Fc^2^)/3'
_refine_ls_weighting_scheme      calc
_refine_ls_wR_factor_gt          0.2135
_refine_ls_wR_factor_ref         0.2252
_olex2_refinement_description    
;
1. Fixed Uiso
 At 1.2 times of:
  All C(H) groups, All N(H) groups, All N(H,H) groups
2.a Rotating group:
 N2(H2a,H2b), N4(H4a,H4b)
2.b Aromatic/amide H refined with riding coordinates:
 N1(H1), N3(H3a), C13(H13), C10(H10), C6(H6), C9(H9), C2(H2), C3(H3)
;
_atom_sites_solution_primary     direct
loop_
_atom_site_label
_atom_site_type_symbol
_atom_site_fract_x
_atom_site_fract_y
_atom_site_fract_z
_atom_site_U_iso_or_equiv
_atom_site_adp_type
_atom_site_occupancy
_atom_site_refinement_flags_posn
Cl2 Cl 0.12827(16) 0.1831(6) 0.30412(5) 0.0574(5) Uani 1.000000 .
Cl1 Cl 0.36002(16) -0.1591(5) 0.28474(4) 0.0578(5) Uani 1.000000 .
Cl3 Cl -0.09228(17) 0.1770(6) 0.71496(5) 0.0571(5) Uani 1.000000 .
Cl4 Cl 0.13894(15) -0.1555(5) 0.69628(5) 0.0569(5) Uani 1.000000 .
O2 O 0.1232(3) -0.3354(11) 0.55004(13) 0.0402(11) Uani 1.000000 .
O1 O 0.1464(3) 0.3385(11) 0.45078(13) 0.0384(10) Uani 1.000000 .
N1 N 0.2953(4) 0.0831(13) 0.47423(13) 0.0348(11) Uani 1.000000 .
H1 H 0.3512(4) -0.0465(13) 0.46988(13) 0.0417(13) Uiso 1.000000 R
N2 N 0.2732(4) 0.1928(14) 0.51161(12) 0.0332(11) Uani 1.000000 .
H2a H 0.216(2) 0.351(9) 0.51033(17) 0.0398(13) Uiso 1.000000 GR
H2b H 0.238(4) -0.006(4) 0.5253(4) 0.0398(13) Uiso 1.000000 GR
N4 N -0.0048(4) -0.1901(16) 0.48811(13) 0.0377(12) Uani 1.000000 .
H4a H 0.047(3) -0.359(9) 0.49064(17) 0.0453(15) Uiso 1.000000 GR
H4b H 0.045(3) -0.037(7) 0.4752(5) 0.0453(15) Uiso 1.000000 GR
N3 N -0.0264(4) -0.0763(14) 0.52618(13) 0.0347(11) Uani 1.000000 .
H3a H -0.0818(4) 0.0555(14) 0.53055(13) 0.0417(13) Uiso 1.000000 R
C14 C 0.0375(4) -0.1711(14) 0.55464(14) 0.0283(11) Uani 1.000000 .
C8 C 0.0004(5) -0.0723(15) 0.59426(15) 0.0311(11) Uani 1.000000 .
C7 C 0.2307(4) 0.1777(15) 0.44538(16) 0.0309(12) Uani 1.000000 .
C13 C 0.0734(5) -0.1408(13) 0.62312(16) 0.0310(12) Uani 1.000000 .
H13 H 0.1412(5) -0.2391(13) 0.61774(16) 0.0372(14) Uiso 1.000000 R
C10 C -0.1285(5) 0.1379(15) 0.63959(19) 0.0380(13) Uani 1.000000 .
H10 H -0.1974(5) 0.2280(15) 0.64498(19) 0.0456(16) Uiso 1.000000 R
C6 C 0.1950(5) 0.1534(16) 0.37624(16) 0.0364(13) Uani 1.000000 .
H6 H 0.1267(5) 0.2474(16) 0.38175(16) 0.0437(16) Uiso 1.000000 R
C1 C 0.2681(4) 0.0859(14) 0.40621(14) 0.0274(11) Uani 1.000000 .
C9 C -0.1015(5) 0.0651(17) 0.60277(16) 0.0361(13) Uani 1.000000 .
H9 H -0.1515(5) 0.1078(17) 0.58338(16) 0.0434(15) Uiso 1.000000 R
C5 C 0.2213(5) 0.0854(16) 0.33952(15) 0.0361(13) Uani 1.000000 .
C12 C 0.0444(5) -0.0609(16) 0.66088(17) 0.0364(13) Uani 1.000000 .
C11 C -0.0558(5) 0.0808(17) 0.66899(15) 0.0354(13) Uani 1.000000 .
C4 C 0.3239(5) -0.0582(17) 0.33125(17) 0.0391(13) Uani 1.000000 .
C2 C 0.3696(5) -0.0566(17) 0.39732(18) 0.0391(13) Uani 1.000000 .
H2 H 0.4201(5) -0.1015(17) 0.41649(18) 0.0470(16) Uiso 1.000000 R
C3 C 0.3952(5) -0.131(2) 0.3597(2) 0.0476(17) Uani 1.000000 .
H3 H 0.4622(5) -0.233(2) 0.3540(2) 0.057(2) Uiso 1.000000 R

loop_
_atom_site_aniso_label
_atom_site_aniso_U_11
_atom_site_aniso_U_22
_atom_site_aniso_U_33
_atom_site_aniso_U_12
_atom_site_aniso_U_13
_atom_site_aniso_U_23
Cl2 0.0553(10) 0.0824(14) 0.0346(8) 0.0025(9) -0.0125(7) -0.0017(9)
Cl1 0.0660(11) 0.0758(13) 0.0316(8) 0.0070(9) 0.0105(7) -0.0101(9)
Cl3 0.0616(11) 0.0765(12) 0.0331(8) -0.0007(9) 0.0096(8) -0.0078(9)
Cl4 0.0521(10) 0.0772(13) 0.0414(9) 0.0083(9) -0.0121(8) 0.0044(9)
O2 0.034(2) 0.050(3) 0.038(3) 0.0145(18) 0.0012(16) -0.003(2)
O1 0.030(2) 0.048(2) 0.037(2) 0.0072(18) 0.0075(17) -0.0010(19)
N1 0.030(2) 0.042(3) 0.033(2) 0.005(2) 0.0040(19) -0.005(2)
N2 0.032(2) 0.042(3) 0.025(2) -0.006(2) -0.0001(18) -0.007(2)
N4 0.025(2) 0.059(4) 0.029(2) 0.002(2) 0.0067(18) -0.010(2)
N3 0.029(3) 0.047(3) 0.028(2) 0.006(2) 0.0004(18) -0.010(2)
C14 0.030(3) 0.035(3) 0.020(2) 0.003(2) 0.0063(19) -0.006(2)
C8 0.032(3) 0.033(3) 0.028(2) 0.001(2) 0.007(2) -0.001(2)
C7 0.022(3) 0.032(3) 0.039(3) -0.003(2) -0.000(2) -0.000(2)
C13 0.027(3) 0.027(3) 0.040(3) 0.000(2) 0.002(2) 0.001(2)
C10 0.032(3) 0.042(3) 0.040(3) 0.005(2) 0.010(2) -0.001(3)
C6 0.033(3) 0.043(4) 0.033(3) 0.004(2) 0.001(2) -0.001(2)
C1 0.026(3) 0.027(2) 0.029(2) -0.004(2) 0.002(2) -0.001(2)
C9 0.025(3) 0.048(3) 0.036(3) 0.003(2) -0.004(2) 0.004(3)
C5 0.040(3) 0.041(3) 0.028(3) 0.002(3) -0.003(2) -0.001(2)
C12 0.038(3) 0.030(3) 0.041(3) -0.007(2) -0.005(2) 0.005(2)
C11 0.037(3) 0.044(3) 0.025(2) -0.003(3) 0.007(2) -0.007(2)
C4 0.046(4) 0.037(3) 0.034(3) -0.005(3) 0.008(3) -0.004(2)
C2 0.031(3) 0.046(3) 0.041(3) 0.005(2) 0.000(2) -0.010(3)
C3 0.028(3) 0.070(5) 0.046(4) 0.003(3) 0.005(3) -0.003(3)

loop_
_geom_bond_atom_site_label_1
_geom_bond_atom_site_label_2
_geom_bond_distance
_geom_bond_site_symmetry_2
_geom_bond_publ_flag
Cl2 C5 1.726(6) . ?
Cl1 C4 1.738(6) . ?
Cl3 C11 1.717(5) . ?
Cl4 C12 1.736(6) . ?
O2 C14 1.235(7) . ?
O1 C7 1.217(7) . ?
N1 H1 0.8600 . ?
N1 N2 1.407(6) . ?
N1 C7 1.336(7) . ?
N2 H2a 0.9288 . ?
N2 H2b 1.0015 . ?
N4 H4a 0.9108 . ?
N4 H4b 0.9608 . ?
N4 N3 1.433(6) . ?
N3 H3a 0.8600 . ?
N3 C14 1.321(7) . ?
C14 C8 1.513(7) . ?
C8 C13 1.375(8) . ?
C8 C9 1.386(8) . ?
C7 C1 1.493(7) . ?
C13 H13 0.9300 . ?
C13 C12 1.408(8) . ?
C10 H10 0.9300 . ?
C10 C9 1.365(9) . ?
C10 C11 1.380(9) . ?
C6 H6 0.9300 . ?
C6 C1 1.405(8) . ?
C6 C5 1.356(8) . ?
C1 C2 1.392(8) . ?
C9 H9 0.9300 . ?
C5 C4 1.401(9) . ?
C12 C11 1.370(8) . ?
C4 C3 1.356(9) . ?
C2 H2 0.9300 . ?
C2 C3 1.389(10) . ?
C3 H3 0.9300 . ?

loop_
_geom_angle_atom_site_label_1
_geom_angle_atom_site_label_2
_geom_angle_atom_site_label_3
_geom_angle
_geom_angle_site_symmetry_1
_geom_angle_site_symmetry_3
_geom_angle_publ_flag
N2 N1 H1 119.6(3) . . ?
C7 N1 H1 119.6(3) . . ?
C7 N1 N2 120.9(5) . . ?
H2a N2 N1 107.3 . . ?
H2b N2 N1 107.5 . . ?
H2b N2 H2a 102.0 . . ?
H4b N4 H4a 92.8 . . ?
N3 N4 H4a 104.8 . . ?
N3 N4 H4b 111.7 . . ?
H3a N3 N4 119.6(3) . . ?
C14 N3 N4 120.9(5) . . ?
C14 N3 H3a 119.6(3) . . ?
N3 C14 O2 123.0(5) . . ?
C8 C14 O2 120.2(5) . . ?
C8 C14 N3 116.8(5) . . ?
C13 C8 C14 115.9(5) . . ?
C9 C8 C14 124.3(5) . . ?
C9 C8 C13 119.7(5) . . ?
N1 C7 O1 121.4(5) . . ?
C1 C7 O1 121.6(5) . . ?
C1 C7 N1 117.0(5) . . ?
H13 C13 C8 120.3(3) . . ?
C12 C13 C8 119.4(5) . . ?
C12 C13 H13 120.3(3) . . ?
C9 C10 H10 119.3(4) . . ?
C11 C10 H10 119.3(3) . . ?
C11 C10 C9 121.4(5) . . ?
C1 C6 H6 119.1(3) . . ?
C5 C6 H6 119.1(4) . . ?
C5 C6 C1 121.8(6) . . ?
C6 C1 C7 116.9(5) . . ?
C2 C1 C7 125.0(5) . . ?
C2 C1 C6 118.1(5) . . ?
C10 C9 C8 120.0(5) . . ?
H9 C9 C8 120.0(3) . . ?
H9 C9 C10 120.0(4) . . ?
C6 C5 Cl2 119.2(5) . . ?
C4 C5 Cl2 121.7(4) . . ?
C4 C5 C6 119.1(5) . . ?
C13 C12 Cl4 117.6(5) . . ?
C11 C12 Cl4 121.9(5) . . ?
C11 C12 C13 120.5(5) . . ?
C10 C11 Cl3 120.2(5) . . ?
C12 C11 Cl3 120.9(5) . . ?
C12 C11 C10 118.9(5) . . ?
C5 C4 Cl1 120.7(5) . . ?
C3 C4 Cl1 119.0(5) . . ?
C3 C4 C5 120.3(6) . . ?
H2 C2 C1 120.1(3) . . ?
C3 C2 C1 119.8(6) . . ?
C3 C2 H2 120.1(4) . . ?
C2 C3 C4 121.0(6) . . ?
H3 C3 C4 119.5(4) . . ?
H3 C3 C2 119.5(4) . . ?

loop_
_refln_index_h
_refln_index_k
_refln_index_l
_refln_F_squared_meas
_refln_F_squared_sigma
0 0 -4 199.82 3.34
0 0 4 208.36 3.94
0 0 -4 187.43 4.05
0 0 -4 202.39 2.95
0 0 4 201.75 3.79
0 0 -5 0.16 0.77
0 0 -5 0.12 0.84
0 0 5 2.4 1.12
0 0 5 -0.32 0.59
0 0 5 0.33 0.77
0 0 -5 -0.13 1.09
0 0 -5 0.64 0.6
0 0 5 -0.21 0.85
0 0 5 0.5 0.62
0 0 6 2620.55 188.44
0 0 -6 2554.15 188.68
0 0 -6 2590.21 188.41
0 0 6 2572.24 188.3
0 0 6 2594.82 188.61
0 0 6 2710.52 188.33
0 0 6 2599.33 188.57
0 0 -6 2570.17 188.3
0 0 -6 2388.26 188.65
0 0 6 2581.19 188.83
0 0 7 0.89 0.7
0 0 -7 0.27 0.71
0 0 7 1.06 1.07
0 0 -7 -0.18 1.24
0 0 7 1.18 1.03
0 0 7 -0.09 0.67
0 0 7 1.74 0.85
0 0 -7 0.89 0.93
0 0 -7 0.34 0.89
0 0 8 1976.26 143.43
0 0 -8 1906.25 143.71
0 0 8 2001.75 143.6
0 0 -8 1989.16 143.39
0 0 -8 1936.4 143.75
0 0 8 1994.46 143.64
0 0 8 1883.01 143.21
0 0 -8 1957.67 143.23
0 0 8 2032.38 143.26
0 0 9 0.9 1.03
0 0 9 1.79 0.99
0 0 -9 0.57 0.88
0 0 9 2.53 0.99
0 0 -9 3.11 1.51
0 0 9 1.53 1.31
0 0 -9 1.01 1.03
0 0 9 0.75 1.22
0 0 -9 0.45 1.16
0 0 10 3345.81 243.45
0 0 10 3358.1 243.5
0 0 -10 3264.9 243.18
0 0 10 3449.61 243.05
0 0 -10 3304.28 243.73
0 0 10 3240.82 242.99
0 0 -10 3309.26 243
0 0 10 3274.1 243.24
0 0 -10 3562.11 243.74
0 0 11 2.9 1.1
0 0 11 0.68 1.4
0 0 -11 0.97 0.94
0 0 -11 3.63 1.79
0 0 -11 3.52 1.36
0 0 -11 -0.56 1.34
0 0 11 1.85 1.36
0 0 11 3.35 1.17
0 0 11 4.08 1.31
0 0 -12 5549.46 400.16
0 0 -12 5524.69 400.39
0 0 -12 5599.82 400.9
0 0 -12 5402.4 400.99
0 0 12 5535.77 400.68
0 0 12 5387.39 400.14
0 0 12 5401.69 400.44
0 0 12 5474.12 400.69
0 0 12 5588.5 400.18
0 0 -13 0.88 1.53
0 0 13 1.07 1.35
0 0 13 4.63 1.38
0 0 -13 1.24 1.25
0 0 -13 5.03 1.89
0 0 -13 1.95 1.11
0 0 13 1.84 1.69
0 0 13 1.11 1.3
0 0 13 3.73 1.23
0 0 -14 335.9 27.21
0 0 14 358.17 26.89
0 0 14 354.14 26.28
0 0 14 354.44 26.65
0 0 -14 363.88 26.57
0 0 -14 347.46 26.25
0 0 14 323.69 26.18
0 0 -14 358.22 27.02
0 0 14 342.18 26.78
0 0 -15 2.9 1.31
0 0 -15 1.95 1.88
0 0 15 3.61 1.66
0 0 -15 3.59 1.28
0 0 15 3.24 1.37
0 0 -15 2.86 1.64
0 0 -15 7.37 2.3
0 0 15 3.3 1.29
0 0 15 0.9 1.48
0 0 15 1.79 1.34
0 0 -16 938.8 68.21
0 0 -16 882.24 68.52
0 0 16 904.02 68
0 0 16 942.44 67.42
0 0 16 954.67 68.14
0 0 16 925.54 67.85
0 0 -16 946.82 67.76
0 0 16 959.65 67.47
0 0 -16 743.43 67.48
0 0 -16 938.32 67.41
0 0 -17 1.87 1.59
0 0 17 4.05 1.58
0 0 17 1.96 1.42
0 0 -17 3.58 1.52
0 0 17 3.66 1.76
0 0 -17 3.61 1.4
0 0 -17 2.19 1.98
0 0 17 3.64 1.41
0 0 17 1.46 1.55
0 0 -17 2.7 1.71
0 0 -18 139.55 11.4
0 0 18 134.76 11.07
0 0 -18 139.31 11.03
0 0 -18 114.46 11.14
0 0 18 138.19 11.7
0 0 18 132.23 10.99
0 0 -18 134.73 11.74
0 0 -18 133.06 12.29
0 0 18 146.63 11.83
0 0 18 138.18 11.53
0 0 -19 3.31 1.61
0 0 -19 2.46 1.64
0 0 19 5.23 1.62
0 0 19 3.97 2.02
0 0 19 1.69 1.38
0 0 -19 9.74 2.58
0 0 19 5.58 2
0 0 -19 0.51 2.05
0 0 -20 973.11 68.05
0 0 -20 814.89 67.25
0 0 20 879.43 66.99
0 0 20 907.09 67.79
0 0 20 914.94 67.62
0 0 -20 931.85 68.72
0 0 -20 943.49 67.08
0 0 -21 5.41 2.11
0 0 21 5.51 2.33
0 0 21 4.76 1.91
0 0 -21 10.83 2.8
0 0 -21 3.16 1.56
0 0 -22 142.21 13.56
0 0 22 150.6 12.64
0 0 -22 168.31 12.27
0 0 -22 120.9 12.13
0 0 -23 0.74 1.83
0 0 23 3.23 2.2
0 0 -23 5.44 2.06
0 0 24 37.78 5.53
0 0 -24 45.71 6.34
0 0 -24 35.36 5.08
0 0 -25 9.58 2.36
0 0 -25 -0.69 3.05
0 0 25 7.55 2.52
0 0 -25 4.76 2.23
0 0 -26 773.05 59.98
0 0 -26 744.65 58.22
0 0 26 736.58 58.58
0 0 -26 821.92 57.98
0 0 -27 13.45 3.14
0 0 -27 3.02 3.13
0 0 -27 10.41 2.53
0 0 27 4.84 2.75
0 0 28 450.88 36.19
0 0 -28 434.63 35.73
0 0 -28 486 35.47
0 0 -28 472.62 37.73
0 0 -29 6.49 2.44
0 0 -29 4.92 3.38
0 0 -29 11.07 2.92
0 0 29 6.27 2.95
0 0 -30 30.61 6.16
0 0 -30 47.12 4.98
0 0 30 32.25 5.19
0 0 -31 -0.88 3.68
0 0 31 -1.7 2.89
0 0 -31 2.31 1.78
0 0 -31 -3.42 3.49
0 0 -32 78.81 9.33
0 0 -32 48.38 8.37
0 0 -32 65.41 6.76
0 0 32 63.9 7.58
0 0 -33 1.89 3.26
0 0 33 0.61 2.82
0 0 -33 9.06 2.55
0 0 -33 4.58 3.56
0 0 34 386.01 30.78
0 0 -34 339.32 31.9
0 0 -34 394.83 29.74
0 0 -34 360.77 32.17
0 0 -35 4.87 3.61
0 0 -35 5.03 4.13
0 0 -35 6.57 2.68
0 0 35 10.41 3.74
0 0 36 335.32 27.05
0 0 -36 312.64 28.47
0 0 -36 307.86 28.57
0 0 37 11.14 3.85
0 0 -37 1.07 4.05
0 0 -37 7.22 4.33
0 0 -38 7.42 4.83
0 0 -38 5.48 4.17
0 0 38 7.88 3.96
0 0 -39 2.18 3.62
0 0 -39 -2.25 3.75
0 0 39 2.21 3.07
0 0 -40 1.11 3.96
0 0 40 0.76 3.53
0 0 -40 1.16 3.85
0 0 -41 8.35 4.67
0 0 41 10.95 4.28
0 0 -41 6.85 5.02
0 0 -42 437.38 39.17
0 0 -42 448.37 39.37
0 0 42 469.42 37.46
0 0 -43 3.75 4.77
0 0 43 14.1 5.05
0 0 -43 13.11 5.85
0 0 -44 420.83 37.42
1 0 -2 0.2 0.33
-1 0 2 0.11 0.27
-1 0 -2 0.4 0.54
1 0 -2 -0.1 0.55
1 0 2 -0.49 0.56
-1 0 2 -0.04 0.24
1 0 2 0.11 0.43
1 0 2 0.32 0.38
-1 0 -2 0.43 0.43
-1 0 -2 -0.1 0.47
1 0 2 -0.14 0.48
-1 0 2 -0.09 0.65
1 0 2 -0.1 0.6
-1 0 -2 -0.1 0.42
-1 0 2 0.06 0.41
1 0 -3 -0.24 0.5
-1 0 -3 0.09 0.61
-1 0 -3 -0.11 0.65
-1 0 3 -0.25 0.37
1 0 -3 0.12 0.79
-1 0 -3 0.22 0.49
1 0 -3 -0.33 0.46
1 0 3 0.34 0.73
-1 0 -3 -0.12 0.56
1 0 3 0.12 0.81
-1 0 -3 -0.24 0.63
1 0 -3 -0.11 0.46
1 0 3 -0.17 0.48
-1 0 3 -0.5 0.87
-1 0 3 -0.08 0.55
1 0 3 0.56 0.63
1 0 3 0.1 0.47
1 0 3 -0.09 0.67
-1 0 3 -0.12 0.35
-1 0 -3 -0.2 0.72
-1 0 -3 -0.07 0.4
-1 0 3 -0.15 0.32
-1 0 -4 0.54 0.85
1 0 4 0.28 0.97
1 0 4 0.32 0.88
-1 0 -4 0.35 0.77
1 0 4 -0.06 0.57
1 0 4 0.1 0.7
1 0 -4 0.2 0.68
1 0 4 -0.13 0.89
-1 0 4 -0.18 0.52
-1 0 -4 -0.26 0.66
1 0 -4 0.07 0.6
1 0 -4 -1.08 1.18
-1 0 4 0.29 0.61
-1 0 -4 -0.55 0.85
-1 0 4 -1.08 1.13
1 0 -4 -0.06 0.54
1 0 -4 0.5 0.56
1 0 4 -0.09 0.74
-1 0 -4 0.19 0.57
-1 0 4 0.37 0.76
-1 0 -4 -0.41 0.92
1 0 5 -0.39 0.94
-1 0 -5 0.63 0.82
-1 0 5 -0.3 0.6
1 0 -5 0.81 0.77
-1 0 -5 -0.16 0.84
-1 0 -5 0.1 0.73
1 0 5 -0.51 0.72
1 0 -5 0.24 0.61
1 0 5 0.43 0.73
1 0 -5 0.08 0.52
1 0 5 -0.07 0.61
-1 0 -5 -0.1 0.73
1 0 5 0.15 0.93
-1 0 -5 0.94 0.85
-1 0 5 -0.48 0.52
-1 0 5 -0.22 0.72
-1 0 5 0.43 0.55
-1 0 5 0.56 1.3
1 0 -5 0.18 1.14
-1 0 -5 0.44 0.66
1 0 -5 -0.22 0.57
1 0 -6 -0.2 0.67
1 0 -6 0.5 0.64
-1 0 -6 0.08 0.63
1 0 -6 0.09 0.65
1 0 6 -0.17 0.98
-1 0 6 -0.13 0.76
-1 0 -6 -0.47 0.83
-1 0 6 0.09 0.64
1 0 -6 0.07 0.6
1 0 -6 -0.41 0.77
1 0 -6 -0.11 0.41
-1 0 6 -0.2 0.63
-1 0 6 -0.22 1.4
1 0 6 -0.47 0.92
-1 0 6 0.64 0.57
-1 0 6 0.29 0.49
-1 0 -6 0.16 0.89
1 0 6 -0.48 0.69
-1 0 -6 -0.22 0.78
-1 0 -6 0.36 0.96
1 0 6 0.17 0.63
-1 0 6 0.18 0.69
-1 0 -7 1.1 1.13
1 0 -7 0.62 0.58
-1 0 -7 0.24 0.89
1 0 -7 -0.09 0.7
-1 0 7 0.57 0.83
-1 0 7 -1.23 1.61
1 0 7 0.57 1.08
-1 0 -7 -0.13 0.81
1 0 -7 -0.32 0.9
1 0 7 -0.4 0.84
-1 0 -7 0.48 0.7
1 0 -7 0.3 0.76
1 0 -7 -0.09 0.68
-1 0 7 -0.57 0.93
-1 0 7 0.07 0.53
-1 0 -7 -0.41 1.1
-1 0 7 0.43 0.75
1 0 -7 -0.73 0.88
1 0 7 0.1 0.7
1 0 7 -0.79 0.97
-1 0 7 0.09 0.63
-1 0 -8 0.84 1.14
1 0 8 0.3 0.94
-1 0 8 -0.08 0.66
1 0 -8 -0.44 0.84
1 0 -8 0.15 0.92
-1 0 8 -0.62 0.8
-1 0 -8 0.59 1
1 0 -8 0.64 0.79
-1 0 8 -0.49 0.9
-1 0 -8 -0.54 0.83
1 0 -8 -0.73 0.93
1 0 8 -0.11 0.75
1 0 -8 -0.24 0.63
-1 0 -8 -0.23 1.13
-1 0 -8 0.13 0.95
-1 0 8 0.16 1.02
-1 0 8 0.55 1.71
-1 0 8 -0.15 0.93
-1 0 8 0.14 0.92
-1 0 -8 1.45 1.98
1 0 -8 -0.11 0.8
1 0 8 -0.63 1.19
-1 0 9 -0.72 1.14
1 0 9 0.6 0.88
-1 0 9 -0.23 0.8
-1 0 -9 0.25 1.25
-1 0 9 0.09 0.68
-1 0 9 -1.13 0.99
1 0 -9 -0.34 1.07
1 0 -9 -0.25 0.87
1 0 -9 1.18 0.86
1 0 -9 -0.28 0.64
1 0 -9 -0.26 0.88
-1 0 -9 -0.31 1.81
-1 0 -9 -0.24 0.92
-1 0 9 0.52 0.95
-1 0 9 -0.18 1.1
1 0 -9 -2.29 1.15
-1 0 -9 0.7 1.23
-1 0 -9 0.33 1.02
1 0 9 0.23 1.37
-1 0 -9 -0.15 0.98
1 0 -10 0.23 0.97
-1 0 -10 0.26 0.91
-1 0 10 2.18 1.34
1 0 10 -0.53 0.98
-1 0 -10 -0.64 1.12
-1 0 -10 0.18 1.1
-1 0 10 0.74 1.1
-1 0 10 0.1 0.68
1 0 10 -0.25 1.33
-1 0 10 0.63 1.24
-1 0 -10 1.69 1.97
1 0 -10 0.68 1.01
-1 0 -10 1.04 1.39
1 0 -10 1.3 1.01
-1 0 -10 -0.28 1.4
1 0 10 -0.18 1.09
1 0 -10 -0.19 1.01
-1 0 10 0.16 1
-1 0 10 0.91 1.05
1 0 -10 0.29 0.95
1 0 -11 -0.14 0.79
-1 0 -11 -0.3 1.41
-1 0 11 -0.2 1.07
1 0 11 0.15 1.04
1 0 -11 -0.87 1.16
-1 0 11 1.42 1.08
1 0 -11 -0.52 1.36
-1 0 11 -0.14 0.96
1 0 11 -0.8 1.35
1 0 -11 0.15 0.87
-1 0 11 0.24 1.43
-1 0 -11 -0.36 1.9
1 0 -11 -0.17 1.04
-1 0 -11 0.87 0.95
1 0 11 0.2 1.02
-1 0 -11 -0.35 1.14
-1 0 -11 -0.2 1.1
-1 0 11 -0.65 1.15
-1 0 11 -0.35 0.7
-1 0 12 2.19 1.78
-1 0 12 5.47 1.39
1 0 -12 12.02 2.29
-1 0 -12 3.31 1.89
-1 0 -12 6.46 2.15
1 0 -12 5.28 1.89
1 0 -12 8.04 1.58
-1 0 12 12.66 2.19
1 0 12 -0.57 1.75
-1 0 -12 16.05 3.5
-1 0 12 14.22 2.27
1 0 -12 12.85 1.97
-1 0 12 10.43 1.72
1 0 12 0.64 1.6
-1 0 12 7.87 1.94
-1 0 -12 10.97 1.95
-1 0 -12 2.36 1.55
1 0 12 8.51 1.77
1 0 -12 4.72 1.54
-1 0 13 1.52 1.79
-1 0 -13 0.36 1.71
1 0 13 -2.11 1.52
1 0 13 1.39 1.22
-1 0 -13 -0.41 1.19
-1 0 13 1.5 1.27
1 0 -13 0.17 1.12
1 0 -13 1.22 1.35
1 0 -13 0.84 1.01
-1 0 -13 0.51 0.94
-1 0 13 2.53 1.52
1 0 13 -0.85 0.98
-1 0 13 2.58 1.47
-1 0 -13 0.81 2.17
-1 0 13 1.25 0.93
-1 0 -13 0.23 1.25
1 0 -13 1.57 1.51
-1 0 13 2.17 1.23
-1 0 14 -0.45 0.96
1 0 -14 55.63 3.9
-1 0 14 32.4 3.98
-1 0 14 10.36 1.97
-1 0 -14 0.42 2.24
1 0 -14 63.21 4.58
1 0 14 -0.25 1.41
-1 0 -14 -0.39 2.24
-1 0 -14 0.18 1.09
1 0 14 -0.18 1.21
-1 0 -14 17.02 2.49
1 0 14 0.97 1.83
-1 0 14 5.24 2.52
-1 0 -14 1.53 1.31
1 0 -14 52.63 3.88
-1 0 14 34.27 2.78
-1 0 14 6.35 2.48
1 0 -14 8.81 3.62
-1 0 15 -0.77 1.12
1 0 15 -0.27 1.23
-1 0 15 0.29 1.37
1 0 15 -0.34 1.42
1 0 -15 0.74 1.39
-1 0 -15 -0.41 1.72
1 0 15 0.19 1.03
-1 0 15 0.49 1.2
-1 0 15 0.27 1.3
-1 0 -15 -0.93 1.37
1 0 -15 -0.38 1.02
-1 0 -15 -0.53 1.24
-1 0 -15 -0.44 1.86
-1 0 -15 0.19 0.96
-1 0 15 -0.16 0.82
1 0 15 -1.01 1.67
1 0 -15 1.35 1.01
1 0 -15 -0.48 1.17
-1 0 -16 0.88 1.96
1 0 16 4.31 2.07
-1 0 16 0.3 1.46
-1 0 16 0.7 1.08
1 0 -16 2.83 2.39
-1 0 16 -0.57 1.66
-1 0 -16 3.66 2.34
-1 0 16 0.61 1.32
-1 0 -16 -0.2 1.15
1 0 -16 2.87 1.44
1 0 -16 -1.2 2.05
1 0 16 0.29 1.79
1 0 -16 2.2 1.5
-1 0 -16 8.37 2.37
1 0 16 0.35 1.6
-1 0 16 0.79 1.35
1 0 16 2.13 1.38
-1 0 -16 0.74 1.58
1 0 16 1.04 1.24
1 0 17 1.74 1.29
-1 0 -17 0.94 1.72
-1 0 -17 2.36 1.58
-1 0 17 -0.43 1.29
-1 0 17 0.56 1.29
1 0 17 0.3 1.53
-1 0 -17 2.33 2.24
1 0 17 3.71 1.81
-1 0 -17 0.52 1.47
1 0 -17 0.87 1.36
1 0 17 2.85 1.35
-1 0 17 1.61 1.43
1 0 17 1.13 1.8
-1 0 17 0.56 0.97
-1 0 -17 2.83 1.4
1 0 -17 0.21 1.09
1 0 -17 -0.85 1.42
1 0 -17 0.55 1.72
-1 0 17 -3.61 1.81
1 0 -18 -0.58 1.62
-1 0 -18 -0.23 1.13
-1 0 18 -0.59 0.96
1 0 -18 -0.88 1.24
1 0 18 -0.32 1.69
-1 0 -18 1.84 1.54
-1 0 18 0.46 1.22
-1 0 -18 0.49 2.12
1 0 -18 2.07 1.39
-1 0 18 -1.01 1.92
-1 0 18 -0.3 1.23
1 0 18 0.77 1.64
1 0 -18 1.38 1.87
1 0 18 1.04 1.37
-1 0 -18 1.99 1.83
-1 0 18 -0.32 1.65
1 0 18 -0.69 1.23
1 0 18 -0.39 1.79
-1 0 -18 1.93 1.55
1 0 19 2.88 2.13
1 0 -19 -1.46 2.12
1 0 -19 1.21 1.2
1 0 19 0.55 1.21
1 0 19 -0.34 1.6
-1 0 -19 -0.24 1.21
-1 0 19 1.34 1.43
1 0 -19 -0.92 1.19
-1 0 -19 2.26 1.62
-1 0 -19 1.58 1.82
-1 0 19 1.2 1.2
-1 0 19 -0.93 1.24
-1 0 -19 2.45 2.54
1 0 19 -0.97 1.26
-1 0 -20 2.04 2.27
1 0 20 0.36 1.53
1 0 20 0.57 1.34
-1 0 20 1.06 1.55
-1 0 -20 2.23 1.98
1 0 -20 0.24 1.28
-1 0 -20 -0.53 1.71
-1 0 -20 -1.01 1.56
-1 0 20 1.31 1.93
1 0 -20 -1.28 1.18
-1 0 -20 -0.75 1.22
1 0 -20 3.13 2.13
1 0 20 0.51 1.26
1 0 20 -0.85 1.69
1 0 -21 0.25 1.32
-1 0 21 3.36 1.66
1 0 21 0.76 1.54
-1 0 21 1.01 1.44
-1 0 -21 -1.02 2.27
-1 0 -21 -0.56 1.87
-1 0 -21 -0.59 2.15
-1 0 -21 -0.35 1.51
1 0 -21 0.27 1.22
1 0 21 1.6 1.32
1 0 21 -0.29 1.23
-1 0 -21 0.26 1.43
1 0 -22 0.59 2.27
-1 0 22 2.74 1.71
1 0 -22 -1.02 1.42
-1 0 -22 -1.18 2.29
1 0 -22 -0.33 1.48
-1 0 -22 5.54 2.51
1 0 22 2.39 1.54
-1 0 -22 -0.37 1.47
1 0 -22 -0.28 1.2
-1 0 -22 0.82 1.46
1 0 -23 2.95 1.62
-1 0 -23 3.1 2.81
1 0 23 3.33 2.07
-1 0 -23 0.76 1.72
-1 0 -23 -0.29 1.4
-1 0 -23 0.65 2.57
1 0 -23 -1.23 2.94
-1 0 23 1.64 1.83
1 0 -23 0.7 1.7
-1 0 24 -1.29 2.19
1 0 -24 0.65 2.52
1 0 -24 2.16 1.8
-1 0 -24 1.3 2.77
1 0 24 -1.74 2.48
-1 0 -24 -4.05 3.12
-1 0 -24 -0.89 1.46
-1 0 -24 0.4 1.76
1 0 -24 1.83 1.66
-1 0 25 0.45 2.06
1 0 25 0.46 2.14
-1 0 -25 -0.71 3.01
-1 0 -25 0.68 2.7
-1 0 -25 0.82 1.86
1 0 -25 0.76 1.97
1 0 -25 -1.36 2.84
-1 0 -25 -1.54 1.71
1 0 -25 -0.64 1.62
1 0 26 -0.48 2.41
-1 0 26 0.47 2.42
-1 0 -26 -1.42 2.82
1 0 -26 2.15 2.85
1 0 -26 0.4 1.93
-1 0 -26 -0.84 2.12
-1 0 -26 4.42 2.36
-1 0 -26 -0.96 1.75
1 0 -26 -2.01 1.76
1 0 27 -0.5 2.39
-1 0 27 -0.48 2.24
-1 0 -27 4.37 2.37
1 0 -27 -0.7 2.01
1 0 -27 -0.82 2.02
-1 0 -27 -0.74 2.7
-1 0 -27 -0.33 1.79
1 0 -27 -0.75 3.18
-1 0 -27 -2.3 3.27
1 0 -28 -0.78 3.52
1 0 -28 2.9 2.14
-1 0 -28 -0.8 3.17
-1 0 -28 0.45 2.09
1 0 28 5.19 2.65
-1 0 -28 0.34 1.92
-1 0 -28 2.3 3.13
-1 0 28 1.51 2.19
-1 0 -29 -2.48 3.53
-1 0 -29 1.77 2.01
1 0 29 -4.31 3.29
-1 0 -29 -0.8 2.92
1 0 -29 7.5 2.58
-1 0 29 2.09 2.97
1 0 -29 -2.44 3.61
-1 0 -29 1.4 2.12
1 0 30 -1.12 3.1
-1 0 -30 -0.96 1.9
-1 0 -30 3.26 2.11
-1 0 30 -0.54 3.01
-1 0 -30 -0.83 2.84
1 0 -30 -0.78 1.92
1 0 -30 -2.53 3.82
-1 0 -30 -2.57 4.25
-1 0 -31 -2.25 2.08
1 0 -31 4.39 3.22
1 0 31 0.59 2.65
-1 0 31 1.69 2.6
1 0 -31 3.61 2.23
-1 0 31 2.1 4.18
-1 0 -31 -0.89 3.06
-1 0 -31 0.49 2.05
-1 0 -31 -1.71 3.04
-1 0 32 0.58 2.6
-1 0 -32 1.01 2.12
-1 0 -32 -2.65 3.24
1 0 -32 0.41 1.95
-1 0 -32 -0.92 3.75
1 0 -32 -1.82 4.04
1 0 32 -3.03 3.19
-1 0 -32 0.77 1.82
-1 0 -33 -1.82 3.54
-1 0 33 4.22 2.89
1 0 33 1.25 2.9
1 0 -33 4.7 2.55
1 0 -33 0.94 3.13
-1 0 -33 1.91 3.07
1 0 34 3.88 2.51
-1 0 -34 0.99 3.05
1 0 -34 0.44 2.15
-1 0 34 6.85 2.54
-1 0 -34 1.88 3.25
1 0 -34 -0.97 3.36
-1 0 -35 -3.88 3.56
1 0 -35 2.01 3.22
1 0 35 2 2.84
-1 0 -35 1.02 3.27
1 0 -35 6.37 2.75
-1 0 35 0.64 2.86
1 0 36 5.56 3.09
1 0 -36 5.62 2.57
1 0 -36 -3.11 5.14
-1 0 -36 2 3.33
-1 0 -36 -7.35 4.94
-1 0 36 1.33 2.7
1 0 -36 3.02 4
1 0 -37 1.04 3.32
1 0 -37 4.81 2.6
1 0 37 -0.72 3.25
-1 0 37 1.37 2.78
-1 0 -37 -2.05 3.53
1 0 -37 -5.34 4.55
-1 0 -37 1.09 3.86
-1 0 -38 -4.46 4.09
1 0 -38 2.13 3.28
-1 0 -38 -3.16 3.87
1 0 38 -2.21 3.93
1 0 -38 -1.1 3.91
-1 0 38 -0.71 3.27
-1 0 39 -2.9 3.6
1 0 -39 1.09 3.89
1 0 39 -2.27 3.49
-1 0 -39 -2.17 3.73
-1 0 -39 -2.29 4.45
1 0 -39 -3.38 4.02
1 0 40 -2.36 3.35
1 0 -40 -9.26 4.61
-1 0 -40 1.18 4.32
-1 0 40 2.25 3.54
-1 0 -40 -1.11 3.96
1 0 -40 -1.12 4.11
1 0 -41 3.44 4.2
-1 0 41 -3.08 3.81
-1 0 -41 -2.42 4.8
-1 0 -41 6.81 4.51
1 0 41 0.81 3.43
1 0 -41 -1.19 4.83
1 0 -42 4.69 4.67
-1 0 -42 -8.66 6.32
1 0 42 -2.47 3.6
-1 0 -42 -1.16 4.26
-1 0 42 -0.79 3.97
1 0 -42 -3.64 5.72
1 0 -43 1.2 4.14
1 0 -43 -7.45 5.3
-1 0 43 -4.06 4.46
1 0 43 -8.54 4.56
-1 0 -43 -2.53 5.28
-1 0 -43 3.56 4.73
1 0 -44 -3.81 7.14
-1 0 -44 -1.29 5.97
-2 0 0 6.92 1.42
-2 0 0 3.22 1.48
-2 0 0 2.13 1.33
2 0 0 5.64 1.39
2 0 0 8.42 1.31
-2 0 0 6.76 1.02
2 0 0 1.33 1.33
-2 0 0 5.14 1.34
2 0 0 8.59 0.84
2 0 0 5.74 1.04
2 0 0 3.78 1.07
-2 0 0 5.88 1.32
-2 0 -1 26.77 2.55
2 0 1 20.63 2.84
-2 0 -1 27.06 3.03
2 0 -1 27.13 2.9
-2 0 -1 31.68 3.11
2 0 1 22.09 2.69
2 0 -1 34.7 3.08
-2 0 1 26.26 2.94
2 0 1 27.54 2.3
2 0 1 25.82 2.55
2 0 -1 26.32 2.51
-2 0 1 28.24 2.54
-2 0 1 54.65 3.45
2 0 -1 37.45 3.03
2 0 1 23.36 2.97
-2 0 -1 27.42 2.79
-2 0 -1 22.91 2.94
-2 0 1 25.01 2.89
2 0 -1 29.05 3.04
2 0 1 25.55 3.05
-2 0 1 27.17 2.77
2 0 2 6227.36 460.96
-2 0 2 6591.73 460.94
-2 0 -2 6466.79 460.39
-2 0 2 6294.92 460.84
-2 0 2 6174.36 460.97
-2 0 2 6498.39 460.7
2 0 -2 6428.73 460.87
2 0 2 6073.1 460.43
2 0 2 6300.82 460.69
-2 0 2 6353.45 460.99
-2 0 -2 6324.68 461.28
2 0 2 6332.08 461.1
2 0 -2 6248.82 461
-2 0 -2 6337.11 460.69
2 0 2 6351.74 461.18
2 0 -2 6427.85 460.67
-2 0 -2 6373.59 460.96
2 0 -2 6300.24 461.02
2 0 3 130.58 10.51
-2 0 -3 123.03 9.92
2 0 -3 127.75 10.27
2 0 3 128.48 10.16
2 0 -3 131.33 10.39
2 0 -3 141.85 9.97
-2 0 3 134.78 10.13
-2 0 3 135.82 10.39
-2 0 3 135.04 10.02
2 0 -3 125.84 10.12
-2 0 -3 121.22 10.21
2 0 3 124.87 10.24
-2 0 -3 120.7 10.46
2 0 4 76.11 6.18
-2 0 -4 73.7 6.45
-2 0 -4 74.89 6.17
2 0 4 73.23 6.48
-2 0 -4 70.98 6.15
-2 0 4 75.96 5.99
2 0 4 75.26 5.99
-2 0 4 72.53 5.82
-2 0 4 72.17 6.07
-2 0 -4 74.34 6.26
-2 0 4 73.02 6.39
2 0 4 65.95 6.36
2 0 4 65.36 6.17
2 0 -4 77 6.49
2 0 -4 78.95 5.93
-2 0 5 61.32 5.55
-2 0 -5 63.29 5.74
2 0 5 67.58 5.63
-2 0 5 71.24 5.72
-2 0 5 64.56 5.54
2 0 5 70.72 6.12
2 0 5 73.3 5.98
2 0 5 74.13 5.87
-2 0 -5 65.7 5.94
-2 0 5 72.95 6.2
-2 0 5 64.28 5.4
2 0 5 65.54 6.12
2 0 -5 67.49 5.78
2 0 -5 66.48 5.51
-2 0 -5 72.12 6.17
2 0 -5 69.66 6.16
-2 0 -5 67.12 5.79
-2 0 -5 65.98 6.01
-2 0 -5 68.86 5.51
-2 0 -6 293.91 21.93
2 0 6 290.32 21.96
-2 0 6 295.49 21.49
-2 0 6 286.59 21.63
-2 0 -6 282.04 22.21
2 0 -6 288.76 21.88
2 0 -6 288.72 21.58
2 0 -6 288.79 22.33
-2 0 6 243.93 22.12
2 0 6 290.62 22.04
-2 0 -6 297.99 21.74
2 0 6 288.32 22.17
-2 0 -6 277.86 21.78
2 0 -6 288.24 21.53
2 0 6 297.07 22.33
2 0 6 295.33 21.91
2 0 6 296.59 21.73
-2 0 -6 289.18 22.17
-2 0 6 285.23 21.83
-2 0 -6 281.32 21.53
-2 0 -7 215.59 16.16
-2 0 7 202.99 16.3
2 0 7 207.72 16.24
2 0 7 209.53 15.83
-2 0 -7 225.88 15.7
-2 0 7 183.62 15.13
-2 0 7 192.05 15.31
-2 0 -7 206.6 15.4
2 0 -7 199.64 15.38
2 0 7 188.36 15.51
2 0 -7 198.31 15.42
2 0 -7 192.79 15.08
2 0 -7 194.17 15.31
-2 0 7 205.85 15.71
-2 0 -7 214.69 15.71
2 0 -7 211.87 15.82
2 0 7 218.83 16.15
2 0 7 209.75 15.99
2 0 -7 193.54 16.19
2 0 7 208.69 15.41
-2 0 -7 216.14 16.23
-2 0 -7 225.47 15.95
2 0 7 226.36 15.91
-2 0 7 197.42 15.49
2 0 -8 22.18 2.38
-2 0 8 18.54 3.39
-2 0 -8 26.78 3.34
-2 0 -8 28.7 2.88
2 0 8 22.19 2.51
2 0 -8 27.95 2.64
-2 0 8 26.94 2.5
2 0 8 27.89 3.07
2 0 -8 17.43 2.61
2 0 8 23.68 3.1
2 0 8 22.22 2.87
2 0 -8 17.29 2.04
2 0 -8 22.43 2.5
2 0 8 22.71 3.11
2 0 8 25.21 2.79
-2 0 -8 23.81 2.53
-2 0 8 23.23 2.83
-2 0 8 24.16 2.59
2 0 -8 18.21 3.47
-2 0 -8 26.25 3.04
2 0 -8 23.66 2.52
-2 0 8 20.89 2.19
-2 0 -8 29.36 2.83
-2 0 -8 23.67 3.25
-2 0 9 4562.36 335.09
-2 0 -9 4764.27 335.59
-2 0 -9 4775.49 335.29
2 0 9 4636.28 334.95
2 0 -9 4757.98 334.98
-2 0 9 4678.14 334.89
2 0 9 4744.08 335.76
2 0 9 4645.38 335.49
-2 0 -9 4637.28 334.94
2 0 -9 4567.89 334.95
-2 0 9 4663.89 336.13
2 0 9 4539.78 335.2
2 0 -9 4233.78 334.58
-2 0 -9 4676.14 335.8
-2 0 9 4781.4 335.34
2 0 -9 4545.31 335
-2 0 9 4493.45 334.77
-2 0 -9 4587.86 335.84
2 0 9 4531.22 335.37
2 0 -9 4796.97 335.48
-2 0 -9 4648.38 335.2
2 0 -9 4510.23 336.02
2 0 -9 4729.75 334.98
2 0 -10 7.75 1.5
2 0 10 8.32 1.47
2 0 10 6.07 1.6
-2 0 -10 6.35 1.67
2 0 -10 5.42 1.37
-2 0 10 8.29 1.66
-2 0 -10 8.89 1.76
2 0 -10 6.13 1.02
-2 0 -10 7.34 2.07
2 0 -10 9.22 1.82
-2 0 10 5.6 1.25
-2 0 10 6.68 1.33
-2 0 -10 7.39 2.02
-2 0 10 6.54 1.76
2 0 10 6.5 1.7
-2 0 -10 6.52 1.42
-2 0 -10 4.27 1.65
2 0 -10 7.86 1.38
-2 0 10 6.65 2.61
2 0 10 4.89 1.71
2 0 -11 380.46 26.66
2 0 11 356.97 26.78
2 0 -11 364.45 26.83
-2 0 -11 375.16 26.83
-2 0 -11 352.33 27.66
-2 0 11 356.21 26.71
-2 0 -11 361.13 27.55
2 0 11 359.21 27.62
-2 0 11 368.89 26.49
-2 0 11 320.91 26.68
-2 0 -11 358.83 27.12
-2 0 11 317.55 26.87
2 0 -11 355.74 26.92
2 0 11 351.69 27.23
2 0 -11 356.17 27.37
-2 0 -11 371.78 27.07
2 0 11 324.68 27.02
-2 0 11 370.65 28.21
2 0 -11 345.88 26.43
-2 0 11 367.86 27.22
-2 0 -11 370.02 27.87
2 0 -11 373.03 26.84
-2 0 -12 96.17 8.9
-2 0 12 95.86 8.29
2 0 -12 95.73 7.93
-2 0 12 95.42 7.9
-2 0 12 83.01 9.06
-2 0 -12 112.46 9.77
2 0 -12 92.87 7.88
-2 0 -12 86.28 8.65
2 0 12 91.52 8.28
2 0 12 85 7.83
-2 0 12 107.79 8.13
-2 0 12 98.77 7.86
2 0 -12 97.15 7.57
-2 0 -12 100.7 8.74
2 0 -12 98.6 8.1
-2 0 -12 93.27 8.12
-2 0 -12 93.37 8.22
2 0 -12 100.14 8.55
-2 0 12 92.34 7.56
-2 0 -12 93.96 7.85
2 0 -12 100.84 7.78
2 0 12 98.17 8.74
2 0 13 4805.29 356.43
-2 0 -13 5123.8 355.95
-2 0 -13 5081.74 356.22
-2 0 13 4919.32 356.42
-2 0 -13 4768.04 356.31
-2 0 -13 4889.69 356.99
-2 0 13 4983.76 355.99
-2 0 -13 4955.32 357.19
2 0 13 4928.92 355.93
2 0 -13 4892.73 355.94
-2 0 13 4335.58 356.06
2 0 -13 4917.63 355.8
-2 0 -13 4867.61 356.88
2 0 -13 4958.12 355.97
-2 0 13 4742.85 357.46
2 0 -13 4755.9 355.58
2 0 13 5070.68 356.93
2 0 -13 5046.06 356.74
-2 0 13 4977.82 355.87
-2 0 13 4787.22 355.6
-2 0 13 4843.05 356.43
2 0 -13 4858.09 356.23
-2 0 -13 5221.69 357.87
2 0 -14 63.06 5.43
2 0 14 53.72 6.04
2 0 -14 52.61 5.52
-2 0 -14 66.1 5.9
-2 0 -14 55.93 6.17
2 0 -14 64.27 5.4
2 0 -14 56.64 5.22
-2 0 -14 54.81 5.52
2 0 14 60.52 5.4
-2 0 14 71 6.04
-2 0 14 54.19 6.75
-2 0 -14 62.42 6.55
-2 0 14 56.45 5.01
2 0 -14 59.64 5.01
-2 0 -14 63.48 5.39
2 0 14 56.17 5.8
-2 0 14 57.56 5.26
-2 0 -14 58.89 7.02
-2 0 14 54 5.72
-2 0 14 55.52 5.33
-2 0 14 58.97 5.74
-2 0 -14 60.57 6.38
2 0 -14 55.06 5.91
-2 0 15 2213.92 170.47
-2 0 15 1902.58 169.01
-2 0 -15 2299.9 169.2
-2 0 15 2298.98 168.7
-2 0 15 2361.73 169.29
2 0 15 2391.24 169.39
-2 0 15 2243.97 168.4
-2 0 -15 2481.23 169.11
2 0 -15 2331.41 168.66
-2 0 -15 2320.98 170.15
2 0 -15 2386.4 169.73
2 0 15 2447.42 169.88
-2 0 -15 2315.2 169.86
-2 0 -15 2418.91 168.78
-2 0 15 2357.89 169.34
2 0 -15 2255.05 169.15
2 0 -15 2274.48 168.73
2 0 -15 2304.28 168.78
2 0 15 2330.08 168.76
-2 0 15 2339.26 168.83
-2 0 -15 2276.19 170.53
-2 0 -15 2289.19 169.89
2 0 16 1275.96 87.86
2 0 -16 1209.21 87.71
-2 0 16 1173.32 88.64
2 0 -16 1129.25 87.11
-2 0 16 1169.56 86.32
2 0 -16 1122.75 86.64
-2 0 16 1187.88 86.76
-2 0 -16 1235.43 86.97
-2 0 -16 1281.71 86.74
2 0 -16 1206.08 86.6
2 0 -16 1235.54 86.68
-2 0 16 1247.66 87.28
-2 0 16 1175.82 87.22
-2 0 -16 1179.84 87.83
-2 0 16 965.32 86.97
-2 0 -16 1186.94 88.14
2 0 16 1154.94 87.25
-2 0 -16 1042.93 88.2
-2 0 16 1175.17 86.62
-2 0 -16 1127.81 87.11
2 0 16 1184.76 86.67
2 0 17 1054.17 79.17
-2 0 -17 1018.01 79.57
-2 0 -17 1017.18 78.58
-2 0 -17 1076.63 78.42
2 0 -17 1046 78.69
2 0 17 1030.87 78.11
-2 0 17 1095.81 78.74
-2 0 17 1073.01 78.11
-2 0 17 1138.49 78.9
-2 0 -17 978.35 79.84
2 0 -17 1107.34 78.15
2 0 -17 1076.89 79.24
2 0 17 1014.91 78.68
-2 0 -17 1117.21 78.19
-2 0 -17 1053.6 79.41
-2 0 17 892.85 78.57
-2 0 17 1043.19 80.16
-2 0 17 1077.03 78.26
2 0 -17 1105.01 78.24
2 0 18 757.21 58.2
-2 0 18 826.86 60.56
-2 0 -18 734.62 60.02
2 0 -18 842.23 58.38
-2 0 -18 762.24 59.51
2 0 18 763.21 58.86
-2 0 18 773.99 58.35
-2 0 -18 755.85 58.7
-2 0 18 626.52 58.66
-2 0 -18 750.25 59.73
-2 0 -18 831.37 58.3
2 0 -18 853.95 59.58
-2 0 18 829.34 58.99
2 0 -18 842.11 58.28
2 0 19 210.37 17.05
-2 0 -19 196.93 17.57
2 0 19 191.67 16.25
-2 0 19 213.07 17.01
-2 0 19 198.05 18.34
2 0 -19 213.82 16.31
-2 0 -19 207.46 17.9
2 0 -19 222.65 17.72
-2 0 -19 182.63 17.94
2 0 -19 220.01 16.47
-2 0 -19 201.45 16.79
-2 0 -19 204.8 16.3
-2 0 20 127.72 13
2 0 -20 131.25 11.01
-2 0 -20 119.07 12.26
-2 0 -20 128.34 12.23
-2 0 -20 122.26 11.29
-2 0 -20 132.38 10.93
2 0 -20 133.48 12.18
-2 0 20 141.47 11.64
2 0 20 134.18 11
2 0 -20 124.05 10.81
2 0 20 139.88 11.71
2 0 -21 2829.38 205.28
2 0 21 2689.06 203.74
-2 0 21 2688.75 206.16
2 0 -21 2784.18 203.71
-2 0 -21 2721.05 205.35
-2 0 -21 2691.61 205.54
-2 0 21 2864.49 204.53
-2 0 -21 2937.82 203.84
-2 0 -21 2746.64 204.32
2 0 21 2707.45 204.5
2 0 -21 2854.32 203.89
-2 0 -22 651.64 50.68
-2 0 -22 679.41 49.41
2 0 -22 634.9 50.21
-2 0 -22 635.59 50.41
2 0 22 648.42 49.6
-2 0 22 655.58 51.4
2 0 -22 639.05 48.8
-2 0 22 627.57 49.42
-2 0 -22 667.39 48.79
2 0 -23 1666.93 121.56
-2 0 23 1581.92 124.03
-2 0 -23 1705.56 121.46
-2 0 23 1664.33 122.22
-2 0 -23 1659.86 122.06
-2 0 -23 1609 123.42
2 0 -23 1666.33 123.15
2 0 23 1603.29 122.25
-2 0 -23 1600.9 123.14
-2 0 -24 24.63 5.21
2 0 -24 25.17 5.19
-2 0 -24 23.85 3.94
2 0 -24 33.72 4.12
-2 0 -24 32.58 4.71
-2 0 -24 31.99 5.54
2 0 24 27.67 4.76
-2 0 24 27.49 4.55
-2 0 24 20.7 5.73
-2 0 25 3092.54 227.19
-2 0 -25 2944.69 228.44
-2 0 -25 2900.69 228.15
-2 0 -25 3267.3 226.39
-2 0 25 2943.04 229.17
2 0 -25 3054.29 228.2
2 0 25 3006.92 227.28
-2 0 -25 3203.9 227.08
2 0 -25 3135.01 226.48
-2 0 -26 45.76 5.57
-2 0 26 41.79 7.69
-2 0 26 29.26 5.27
2 0 -26 28.09 4.38
2 0 -26 42.29 6.54
-2 0 -26 44.61 6.75
-2 0 -26 36.17 4.65
2 0 26 25.45 5.03
-2 0 -26 59.59 7.61
2 0 -27 366.6 28.33
2 0 27 363.47 29.21
-2 0 -27 366.36 28.89
2 0 -27 348.14 30.08
-2 0 -27 352.65 30.36
-2 0 27 330.74 28.85
-2 0 -27 412.34 28.35
-2 0 -27 339.04 30.02
-2 0 27 341.29 30.97
2 0 -28 401.16 30.42
-2 0 -28 361.96 32.36
-2 0 -28 401.98 30.19
-2 0 28 391.64 31.17
-2 0 -28 408.4 31.02
2 0 -28 381.56 32.33
2 0 28 379.15 31.22
-2 0 -28 362.43 32.14
-2 0 28 381.38 33.39
-2 0 29 1030.89 85
2 0 29 1097.49 83.11
2 0 -29 1140.56 84.48
-2 0 -29 958.29 84.04
-2 0 -29 1127.76 81.98
-2 0 -29 1064.06 84.18
2 0 -29 1159.41 82.27
-2 0 29 1130.58 83.03
-2 0 -29 1104.14 82.71
-2 0 -30 462.61 34.26
-2 0 30 398.77 36.32
2 0 -30 411.05 35.56
-2 0 30 417.62 34.22
-2 0 -30 421.46 35.54
2 0 30 456.29 34.64
2 0 -30 457.19 33.61
-2 0 -30 376.47 35.44
-2 0 31 443.41 38.46
2 0 -31 461.66 35.24
2 0 -31 425.44 37.27
2 0 31 447.16 36.18
-2 0 -31 433.69 37.57
-2 0 -31 437.43 37.35
-2 0 -31 472.61 35.88
-2 0 31 477.4 36.2
2 0 -32 139.33 12.35
-2 0 32 147.89 13.37
-2 0 -32 141.31 12.92
-2 0 -32 123.71 14.23
-2 0 -32 144.36 14.85
2 0 32 131.37 13.29
2 0 -32 131.67 14.45
-2 0 -33 631.88 45.68
-2 0 -33 520.82 47.18
-2 0 33 572.94 45.74
-2 0 -33 534.66 46.97
2 0 33 607.23 46.18
2 0 -33 555.33 47.22
2 0 -33 619.51 45.07
-2 0 -34 19.59 3.98
2 0 -34 8.78 4.42
-2 0 34 10.68 3.71
-2 0 -34 10.12 4.58
2 0 34 12.94 3.83
-2 0 -34 10.32 4.34
2 0 -34 9.26 2.97
-2 0 -35 417.04 36.31
-2 0 35 426.36 34.72
2 0 -35 443.5 36.73
2 0 -35 430.06 33.82
-2 0 -35 413.7 36.5
2 0 35 447.03 35.2
2 0 36 74.39 9.01
-2 0 -36 53.65 9.53
2 0 -36 71.43 10.16
-2 0 -36 68.75 9.77
-2 0 36 71.42 8.7
2 0 -36 82.65 8.17
2 0 37 222.86 19.35
-2 0 -37 178.7 20.22
-2 0 -37 204.07 20.46
2 0 -37 206.69 20.68
2 0 -37 241.57 18.28
-2 0 37 188.13 18.59
2 0 -38 -1.1 3.67
2 0 38 2.29 3.19
-2 0 -38 3.4 4.04
2 0 -38 10.37 3.46
-2 0 -38 1.05 3.61
-2 0 38 2.12 3.33
-2 0 39 61.7 7.99
2 0 -39 48.72 8.8
-2 0 -39 57 9.28
2 0 -39 60.56 7.18
-2 0 -39 62.29 9.23
2 0 39 54.75 7.97
2 0 -40 15.1 6.05
2 0 40 17.89 4.83
-2 0 40 17.9 4.79
2 0 -40 20.24 6.03
2 0 -40 14.82 4.04
-2 0 -40 16.67 5.82
-2 0 -40 11.01 5.03
-2 0 -41 32.93 7.27
-2 0 41 29.8 5.72
2 0 -41 27.44 6.88
2 0 41 28.33 5.94
2 0 -41 23.04 6.97
-2 0 -41 36.11 7.06
-2 0 -42 18.72 6.41
-2 0 -42 33.28 7.13
2 0 -42 23.57 6.6
2 0 -42 29.31 7.24
-2 0 42 16.42 4.92
2 0 42 27.29 5.73
-2 0 -43 52.28 9.38
-2 0 43 62.8 8.45
-2 0 -43 45.77 8.75
2 0 43 47.63 8.14
2 0 -43 40.97 8.55
2 0 -43 53.67 9.47
-3 0 0 0.41 1.35
-3 0 0 0.35 1.15
3 0 0 0.41 1.23
3 0 0 -0.72 1.35
3 0 0 -0.71 0.96
3 0 0 0.23 1.4
-3 0 0 -0.7 1.13
-3 0 0 -0.73 0.73
3 0 0 -0.13 0.56
3 0 0 -0.18 1.05
3 0 0 -0.25 0.88
-3 0 0 0.41 1.25
3 0 -1 0.2 1.16
-3 0 1 0.12 0.73
3 0 1 0.22 1.37
3 0 1 0.55 1.08
-3 0 1 0.79 1.33
-3 0 -1 0.94 1.21
3 0 1 -0.25 0.91
3 0 -1 0.17 1.13
3 0 1 0.47 1.35
-3 0 -1 -0.91 1.23
-3 0 -1 0.43 1.49
3 0 -1 0.18 1
-3 0 1 0.2 1.19
-3 0 1 0.73 1.2
3 0 1 -0.77 1.32
3 0 1 0.17 1.05
3 0 1 -0.31 0.53
-3 0 -1 -0.25 0.8
3 0 -1 0.65 1.35
-3 0 1 0.34 1.04
3 0 -1 0.14 0.6
3 0 -1 -0.24 0.82
3 0 -1 -0.19 1.12
3 0 -2 1.29 1.49
-3 0 -2 -0.13 0.76
-3 0 2 -0.34 1.16
3 0 -2 -0.98 1.27
3 0 -2 0.12 0.82
3 0 2 -0.19 1.02
3 0 2 0.46 1.48
3 0 2 -0.52 0.97
3 0 -2 0.53 1.05
3 0 2 -0.96 1.43
-3 0 2 -0.19 1.14
3 0 -2 -0.61 1.21
-3 0 2 0.38 1.45
3 0 -2 0.17 1.11
-3 0 -2 0.25 1.35
3 0 2 -0.45 0.61
-3 0 -2 0.41 1.37
-3 0 2 0.51 0.81
-3 0 2 0.4 1.24
-3 0 -2 0.66 1.48
-3 0 -2 0.57 1.16
3 0 -3 -0.22 1.26
-3 0 -3 -0.22 1.32
3 0 3 0.5 1.51
3 0 -3 -0.67 1.33
3 0 -3 0.18 1.02
-3 0 -3 -0.27 1.32
-3 0 3 -0.38 1.2
-3 0 3 0.85 1.14
3 0 3 0.17 1.25
-3 0 3 1.43 1.34
-3 0 3 0.27 0.86
3 0 3 -0.2 1.19
3 0 -3 0.74 0.89
-3 0 -3 0.78 0.88
-3 0 -3 1.98 1.27
-3 0 3 0.21 1.27
-3 0 -3 0.94 0.49
3 0 3 -0.73 1.63
-3 0 -4 -0.55 1.37
-3 0 4 1.02 0.92
-3 0 -4 -0.14 0.91
-3 0 4 0.69 1.35
3 0 -4 0.64 0.8
3 0 4 -0.26 1.37
-3 0 4 -0.35 1.08
-3 0 4 -0.38 1.31
3 0 -4 -0.99 1.49
-3 0 -4 -0.84 1.43
3 0 4 -0.54 1.19
3 0 -4 0.19 1.06
3 0 -4 -0.22 1.31
-3 0 -4 0.19 0.42
3 0 4 -0.21 1.23
-3 0 -5 0.28 0.86
3 0 5 -1.91 1.55
3 0 5 0.31 1.12
-3 0 5 1 1.53
-3 0 5 -0.47 0.95
3 0 -5 -0.27 0.79
-3 0 -5 0.29 1.45
3 0 5 0.77 1.21
-3 0 5 0.54 1.14
-3 0 -5 0.1 0.47
3 0 5 -0.29 1.35
3 0 -5 0.23 1.31
3 0 -5 -0.27 1.54
3 0 -5 0.58 1.16
-3 0 -5 0.68 1.45
-3 0 5 -0.47 0.84
-3 0 -6 -0.3 1.47
3 0 6 -0.21 1.25
-3 0 -6 0.74 1.56
-3 0 -6 -3.38 1.5
3 0 6 -1.25 1.79
-3 0 6 0.17 0.94
3 0 6 -0.28 1.6
3 0 -6 -0.45 1.12
3 0 6 0.33 1.07
-3 0 6 0.28 1.58
3 0 6 1.2 1.3
-3 0 6 0.19 1.12
3 0 -6 -0.3 1.73
3 0 -6 0.24 1.44
-3 0 -6 -0.89 1.24
-3 0 6 0.68 0.91
3 0 -6 0.56 0.86
-3 0 6 0.74 0.85
-3 0 7 -0.52 0.79
-3 0 7 -0.71 1.01
3 0 -7 0.15 0.86
-3 0 -7 0.26 1.48
3 0 -7 0.65 1.65
3 0 7 -0.51 1.48
-3 0 7 -0.18 0.91
-3 0 -7 -0.96 1.39
-3 0 -7 -0.87 1.33
-3 0 7 1.52 1.73
3 0 7 -0.33 1.6
3 0 -7 0.23 1.11
-3 0 7 -0.79 1.11
3 0 7 -0.3 1.45
3 0 7 0.72 1.09
-3 0 -7 0.47 1.31
3 0 7 -0.22 1.24
-3 0 -7 -0.75 1.06
3 0 -8 -0.16 0.86
-3 0 -8 -0.76 1.45
3 0 8 -0.77 1.25
3 0 8 0.36 1.59
-3 0 -8 0.68 1.57
-3 0 -8 0.31 1.46
-3 0 -8 -0.44 1.39
3 0 8 -0.62 1.69
-3 0 -8 -0.63 1.07
3 0 8 -0.24 1.29
-3 0 8 0.33 1.68
-3 0 8 0.82 0.97
3 0 8 0.28 1.45
-3 0 8 2.64 1.22
3 0 -8 -0.7 1.7
-3 0 -8 0.84 1.57
3 0 -8 0.25 1.2
-3 0 8 -0.42 1.24
3 0 -9 -0.33 0.9
-3 0 9 -0.45 0.8
-3 0 9 -0.2 1.03
-3 0 9 -0.36 1.86
-3 0 -9 0.65 1.35
3 0 9 0.27 1.43
3 0 -9 -1.52 1.88
3 0 9 0.21 1.33
-3 0 -9 -0.36 1.49
3 0 -9 0.17 0.98
3 0 9 1.89 1.78
3 0 9 -0.33 1.67
-3 0 9 0.15 0.85
3 0 -9 -0.26 1.18
-3 0 -9 0.16 0.98
-3 0 9 0.44 1.23
-3 0 -9 2.47 1.62
3 0 9 0.77 1.33
3 0 9 -0.29 1.43
-3 0 -9 0.23 1.3
-3 0 -10 -0.34 1.46
3 0 10 0.55 1.41
3 0 10 1.59 1.43
3 0 -10 -0.2 0.71
3 0 10 -0.85 1.24
-3 0 10 -0.77 2.17
-3 0 10 -0.74 1.21
3 0 -10 0.33 0.91
-3 0 10 0.42 1.09
-3 0 10 0.31 0.95
-3 0 -10 1.13 1.57
3 0 10 0.64 1.39
3 0 -10 0.81 1.91
3 0 -10 0.36 0.97
-3 0 -10 0.5 1.05
-3 0 -10 0.3 1.36
3 0 -10 0.28 1.32
-3 0 -10 -0.23 1.18
-3 0 -10 -0.23 1.45
3 0 -10 -0.35 0.91
3 0 10 -0.4 1.88
3 0 10 -0.34 1.58
-3 0 10 0.23 0.73
-3 0 -11 0.4 1.91
3 0 -11 -1.3 2.24
-3 0 11 1.81 1.35
3 0 11 -0.36 1.71
3 0 -11 0.3 0.77
-3 0 -11 -0.36 1.67
3 0 -11 -0.35 1.18
-3 0 -11 -0.24 1.49
3 0 -11 0.19 0.91
-3 0 -11 2.23 1.59
-3 0 -11 2.48 1.08
-3 0 11 0.85 1.96
3 0 -11 0.76 1.03
3 0 11 -0.34 1.72
3 0 11 -0.29 1.5
-3 0 -11 0.32 1.26
-3 0 11 1.3 1.02
-3 0 11 -1.03 1.55
3 0 -11 -1.77 1.9
-3 0 11 -0.13 0.74
3 0 11 -0.3 1.61
3 0 11 3.17 1.65
-3 0 -12 -0.53 1.26
-3 0 -12 1.27 1.88
3 0 -12 -0.63 1.5
3 0 12 0.31 1.64
-3 0 12 0.24 1.17
-3 0 -12 1.7 1.63
-3 0 12 -0.42 0.94
3 0 -12 -0.4 1.27
-3 0 12 0.54 1.35
-3 0 -12 -0.76 1.59
-3 0 -12 -0.74 1.18
-3 0 -12 -0.98 1.47
3 0 -12 -1.37 2.1
3 0 -12 -0.52 0.69
3 0 -12 -0.2 1.05
3 0 -12 -0.19 1.04
-3 0 12 1.2 1.08
3 0 12 0.26 1.25
3 0 12 1.83 1.69
-3 0 12 0.91 2.39
3 0 12 -0.37 1.72
3 0 12 -0.57 1.12
3 0 12 0.31 1.53
3 0 -13 -0.33 1.54
-3 0 -13 -0.44 1.85
3 0 -13 -2.1 1.29
3 0 -13 -0.48 2.33
-3 0 -13 0.55 1.44
3 0 13 -5.07 2.32
3 0 -13 -0.42 1.18
-3 0 13 -0.16 1.02
-3 0 -13 0.97 1.17
3 0 -13 -0.44 0.71
-3 0 -13 -0.4 1.51
-3 0 13 -0.25 1.22
3 0 13 -0.27 1.42
3 0 13 -0.6 1.2
-3 0 13 -0.28 1.48
-3 0 -13 -0.25 1.19
3 0 -13 0.84 1.17
-3 0 -13 -0.73 1.62
-3 0 13 -0.55 1.04
3 0 13 -0.32 1.57
-3 0 13 -0.48 2.09
3 0 13 -0.78 1.83
-3 0 14 1.32 1.65
3 0 14 9.38 2.58
-3 0 14 -1.02 2.37
3 0 -14 1.67 0.74
3 0 -14 -1.07 1.74
3 0 14 -0.67 2.01
-3 0 -14 1.57 1.52
3 0 -14 -0.66 1.2
-3 0 14 0.88 1.77
3 0 -14 3.07 1.22
-3 0 -14 0.42 1.95
3 0 14 -2.01 2.4
-3 0 14 0.8 1.47
3 0 -14 2.55 1.24
-3 0 -14 12.84 2.86
3 0 14 -4.93 2.51
-3 0 -14 -1.87 2.76
3 0 14 -0.63 1.33
-3 0 -14 1.55 1.8
3 0 -14 1.49 1.37
-3 0 14 0.19 1.39
-3 0 -14 -0.2 1.29
3 0 -15 -0.76 1.55
-3 0 -15 1.23 1.71
3 0 -15 -0.23 1.27
-3 0 -15 -1.33 1.89
-3 0 -15 0.6 2.57
-3 0 -15 0.27 1.4
-3 0 15 1.1 1.32
3 0 -15 -0.26 0.92
3 0 15 -0.35 1.51
-3 0 -15 0.99 2.06
-3 0 15 -0.56 1.54
-3 0 15 0.82 1.2
3 0 -15 -2.28 2.05
3 0 -15 -0.44 1.13
3 0 -15 1.59 1.2
-3 0 15 -1.64 2.83
-3 0 15 0.31 1.57
3 0 15 -0.86 2
3 0 15 0.44 1.29
-3 0 -15 -0.41 1.56
-3 0 -15 -0.21 1.28
3 0 15 0.42 1.94
3 0 16 -0.23 1.44
3 0 16 1.31 2.24
3 0 -16 -1.12 1.51
3 0 -16 -0.4 1.87
-3 0 -16 0.52 2.16
-3 0 -16 0.44 1.7
-3 0 -16 1.78 1.28
3 0 -16 0.96 0.96
-3 0 -16 -1.25 2.93
3 0 -16 0.49 1.19
3 0 16 1.83 1.69
-3 0 -16 1.39 1.97
3 0 -16 0.24 1.34
-3 0 -16 0.28 1.45
-3 0 16 1.14 2.79
-3 0 16 -0.96 1.8
-3 0 16 0.51 1.35
-3 0 16 -0.22 1.23
3 0 -16 0.23 1.08
-3 0 -16 1.61 1.46
3 0 17 -1.71 1.56
3 0 -17 0.71 1.27
3 0 -17 1.22 1.6
-3 0 -17 1.09 1.99
3 0 -17 1.02 1.44
-3 0 -17 2.78 2.22
-3 0 -17 2.36 1.97
3 0 -17 -1.24 1.41
-3 0 17 1.82 1.52
3 0 17 2.69 1.78
-3 0 17 2.44 2.76
3 0 -17 0.43 2.02
-3 0 -17 1.16 1.2
-3 0 17 0.29 1.39
3 0 -17 -0.73 0.88
-3 0 18 3.83 2.95
-3 0 -18 -0.57 2.03
-3 0 -18 0.49 1.74
-3 0 18 1.53 1.66
3 0 -18 1.07 1.31
3 0 18 -1.01 1.57
3 0 -18 0.98 1.62
3 0 -18 -0.49 1.12
3 0 -18 0.46 1.99
3 0 18 1.19 1.46
-3 0 -18 -0.24 1.37
-3 0 -18 0.71 1.5
-3 0 19 2 1.81
3 0 -19 -1.76 1.63
-3 0 -19 1.47 1.67
3 0 -19 1.45 1.83
-3 0 -19 1.55 2.05
-3 0 19 -2.03 2.76
-3 0 -19 0.6 2.12
3 0 -19 0.56 1.36
-3 0 -19 0.25 1.25
-3 0 20 9.18 4.07
-3 0 20 0.41 2.2
3 0 -20 2.34 1.73
-3 0 -20 0.62 2.29
-3 0 -20 -0.53 1.52
3 0 -20 7.6 2.85
3 0 20 -0.44 2.12
-3 0 -20 -0.54 1.93
-3 0 -20 0.77 1.8
3 0 -20 4.47 2.65
3 0 -21 -1.97 1.85
3 0 -21 -0.54 2.24
3 0 -21 0.31 1.63
-3 0 -21 -1.19 1.77
-3 0 21 -2.21 3.14
3 0 21 -1.82 2.39
-3 0 -21 0.27 1.46
-3 0 21 0.43 2.18
-3 0 -21 1.14 2.1
-3 0 -21 1.96 2.01
-3 0 22 1.76 1.83
-3 0 -22 -0.86 1.53
3 0 -22 -0.96 1.61
-3 0 -22 -0.41 1.72
-3 0 22 5.36 3.67
-3 0 -22 -0.6 2.5
3 0 -22 4.55 2.58
3 0 22 -1.41 2.24
-3 0 -22 -2.04 3.08
-3 0 23 -2.42 3.65
-3 0 -23 -0.63 2.3
-3 0 -23 -0.86 2.5
3 0 -23 0.33 1.54
-3 0 23 -1.37 2.73
3 0 23 -1.46 2.21
-3 0 -23 -0.59 1.63
3 0 -23 0.6 2.27
3 0 24 -1.02 2.35
-3 0 24 2.36 2.3
-3 0 24 1.67 4.14
-3 0 -24 0.31 1.65
-3 0 -24 0.65 2.79
3 0 -24 1.04 1.74
-3 0 -24 -2.21 3.4
-3 0 -24 -0.44 1.85
3 0 -24 7.51 3.34
3 0 25 -1.58 2.74
-3 0 -25 -3.06 3.4
-3 0 25 -0.87 3.45
-3 0 -25 0.31 1.79
3 0 -25 1.08 2
-3 0 -25 -0.46 1.87
3 0 -25 -1.32 3.27
-3 0 25 -1.46 2.74
-3 0 -25 -0.68 2.57
-3 0 -26 5.57 3.16
3 0 -26 1.39 2.77
-3 0 26 1.52 2.2
-3 0 -26 -2.13 2.61
-3 0 26 2.69 3.57
-3 0 -26 -0.95 2.23
3 0 26 -1.1 2.67
3 0 -26 0.75 1.89
-3 0 -27 -1.48 3.08
-3 0 -27 -0.82 3.36
-3 0 27 2.79 3.97
3 0 27 4.55 2.77
3 0 -27 4.33 2.94
-3 0 -27 0.49 2.18
-3 0 27 7.81 2.93
3 0 -27 -0.39 1.99
-3 0 -28 4.27 3.58
-3 0 28 9.12 2.76
3 0 -28 3.22 2.4
-3 0 -28 2.52 2.63
3 0 -28 3.8 3.11
3 0 28 11.19 2.98
-3 0 -28 0.77 3.07
-3 0 28 -1.92 4.77
-3 0 -29 0.88 3.93
3 0 -29 -0.8 3.41
-3 0 29 -0.99 3.74
-3 0 29 -1.67 2.83
3 0 -29 -1.67 2.13
-3 0 -29 -0.52 2.21
3 0 29 4.88 2.36
-3 0 -29 0.8 2.92
3 0 -30 0.43 1.88
-3 0 -30 -1.83 3.35
3 0 30 -0.63 2.8
-3 0 -30 1.65 3.02
3 0 -30 -0.83 3.29
-3 0 30 1.14 2.6
-3 0 30 -6.14 4.9
-3 0 -30 -1.6 2.28
3 0 31 0.65 2.65
3 0 -31 -1.74 3.27
-3 0 -31 0.94 3.56
3 0 -31 -0.44 1.9
-3 0 31 -0.59 2.47
-3 0 31 -3.16 4.59
-3 0 -31 -0.85 3.2
-3 0 -31 -0.55 2.12
-3 0 -32 3.94 2.55
3 0 -32 -0.46 2.16
3 0 32 2.02 2.46
-3 0 32 1.83 2.36
-3 0 -32 -1.75 3.02
-3 0 -32 -3.9 3.57
3 0 -32 -3.58 3.47
3 0 -33 -0.94 2.14
-3 0 -33 -2.71 3.77
-3 0 -33 1 3.34
-3 0 33 1.88 2.62
3 0 -33 1.87 3.44
-3 0 -33 -1.73 2.8
3 0 33 0.69 3.37
-3 0 34 -2.59 2.99
-3 0 -34 -1.77 2.57
-3 0 -34 -1.03 4.01
3 0 -34 0.49 2.31
3 0 34 2.14 3.24
3 0 -34 -0.97 3.84
-3 0 -34 -2.8 3.71
-3 0 35 -3.33 3.08
3 0 -35 0.5 2.34
-3 0 -35 4.81 4.28
3 0 35 -4.41 4.03
-3 0 -35 -10.65 5.36
-3 0 -35 -1.21 2.69
-3 0 36 6.13 3.43
-3 0 -36 -3.28 4.35
3 0 -36 5.17 4.01
3 0 -36 -2.07 2.3
-3 0 -36 -2.97 3.74
3 0 36 -2.3 3.54
-3 0 -37 4.07 4.15
3 0 37 -1.57 4.08
-3 0 -37 -2.25 4.59
-3 0 37 -4.2 3.84
3 0 -37 2.13 2.46
3 0 -37 -7.51 4.68
3 0 -38 0.55 2.48
-3 0 -38 -2.09 3.72
-3 0 38 5.73 3.6
3 0 38 -3.23 4.12
-3 0 -38 -1.15 3.7
3 0 -39 0.56 2.59
-3 0 39 3.67 3.52
-3 0 -39 -1.18 4.21
3 0 39 -0.83 3.6
-3 0 -39 -6.43 3.93
3 0 -39 -1.14 3.79
-3 0 40 -0.75 3.14
3 0 40 -4.24 3.37
-3 0 -40 4.4 4.48
3 0 -40 -2.29 2.79
-3 0 -40 3.63 3.73
-3 0 -41 2.25 3.75
-3 0 -41 -1.24 4.27
3 0 -41 -4.8 5.24
3 0 41 -0.87 3.7
-3 0 41 -6.17 4
3 0 -41 -2.93 3.17
3 0 -42 1.23 4.36
3 0 -42 0.6 2.96
-3 0 -42 -1.27 4.36
-3 0 -42 -2.3 4.22
-3 0 42 -0.79 3.98
3 0 42 -1.77 4.17
3 0 -43 -6.29 6.43
-3 0 -43 -1.29 4.76
4 0 0 5007.85 356.55
4 0 0 5209.48 357.09
-4 0 0 5036.06 356.79
4 0 0 4730.35 356.1
-4 0 0 4968.66 356.12
-4 0 0 4903.79 356.74
-4 0 0 4934.05 356.53
4 0 0 4844.97 356.55
4 0 0 4717.94 355.68
4 0 0 4707.71 356.48
-4 0 0 5041.03 356.56
4 0 0 5085.75 356.84
-4 0 1 440.34 28.83
-4 0 1 414.16 28.9
4 0 1 342.69 28.69
4 0 -1 385.42 28.54
-4 0 -1 418.95 28.74
-4 0 -1 414.06 28.94
4 0 1 391.36 28.63
-4 0 -1 386.81 28.89
4 0 -1 377.04 28.8
-4 0 -1 349.65 28.04
4 0 -1 439.55 28.81
-4 0 1 416.29 28.87
4 0 1 441.9 29.54
-4 0 1 354.63 28.08
-4 0 -1 408.56 28.99
4 0 1 367.09 28.89
4 0 1 356.55 28.1
4 0 -1 351.52 27.69
4 0 -1 414.6 28.74
4 0 -1 335.78 28.01
4 0 1 323.71 27.63
-4 0 1 372.78 28.51
4 0 1 412.66 28.6
-4 0 2 7796.71 553.28
4 0 2 7838.15 553.1
4 0 2 6526.64 552.21
4 0 -2 7744.24 553.32
4 0 -2 7484.67 552.68
4 0 2 7583.61 552.74
4 0 -2 7742.09 553.1
4 0 2 7970.96 553.69
-4 0 2 7768.11 552.77
-4 0 -2 7888.84 553.31
4 0 -2 7400.9 553.43
-4 0 2 7612.66 553.08
-4 0 2 7589.21 553.22
-4 0 -2 7747.83 553.2
4 0 2 7781.51 553.22
-4 0 -2 7866.07 553.47
-4 0 -2 7767.82 552.73
-4 0 2 7829.28 553.35
4 0 2 7781.87 553.55
4 0 -2 7669.93 553.31
4 0 -2 8017.18 552.36
4 0 -2 7717.36 553.13
4 0 -3 1557.09 116.21
4 0 -3 1579.29 117.01
4 0 -3 1622.63 116.87
-4 0 3 1576.38 116.61
4 0 3 1568.98 117.15
-4 0 3 1672.2 116.35
-4 0 -3 1753.76 117.48
-4 0 -3 1650.7 116.82
4 0 -3 1658.93 116.65
4 0 3 1477.17 115.79
4 0 3 1668.42 117.33
-4 0 3 1595.04 116.87
-4 0 -3 1547.43 116.85
-4 0 3 1541.85 116.76
4 0 -3 1537.24 116.61
4 0 3 1649.13 116.83
-4 0 3 1657.3 116.83
4 0 3 1555.7 116.27
4 0 -3 1594.41 116.9
-4 0 -3 1597.68 116.26
4 0 4 39.17 5.34
-4 0 4 52.3 5.57
4 0 4 49.72 5.77
4 0 -4 55.32 5.47
-4 0 4 60.21 5.54
4 0 -4 51.69 5.09
4 0 4 41.39 5.01
4 0 4 50.07 5.07
4 0 -4 53.34 4.68
-4 0 4 52.86 5.04
-4 0 4 58.1 4.88
4 0 -4 59.71 5.66
-4 0 -4 48.39 4.64
-4 0 -4 35.19 5.63
-4 0 -4 34.35 5.32
-4 0 4 59.83 5.51
-4 0 -4 53.95 5.31
-4 0 5 353.9 29.1
4 0 5 378.03 28.59
-4 0 5 369.46 28.95
4 0 -5 359.42 29.28
4 0 5 424.51 29.66
-4 0 -5 396.21 29.17
4 0 -5 359.02 28.87
4 0 -5 344.26 29.13
4 0 5 381.2 29.54
-4 0 -5 420.37 29.86
4 0 -5 370.36 28.47
-4 0 5 366.41 28.63
-4 0 -5 390.45 28.58
4 0 5 379.11 28.92
-4 0 5 374.26 28.82
4 0 5 398.78 29.18
-4 0 -5 389.25 27.92
4 0 6 269.49 17.87
4 0 6 245.21 18.11
4 0 6 238.38 18.21
-4 0 -6 225.19 18.09
-4 0 6 193.91 17.53
-4 0 6 208.24 17.31
4 0 6 258.3 17.23
-4 0 6 204.89 16.77
-4 0 -6 232.14 17.01
4 0 6 238.34 17.46
-4 0 6 218.17 17.25
-4 0 -6 217.85 16.26
4 0 -6 192.91 17.46
-4 0 6 201.95 17
4 0 -6 215.67 17.35
4 0 -6 195.18 17.67
4 0 -6 206.55 16.85
-4 0 -6 231.34 17.67
4 0 7 270.07 21.3
4 0 -7 266.54 22.17
4 0 -7 292.46 22.05
-4 0 7 305.77 21.15
4 0 7 266.46 22.4
-4 0 -7 293.16 21.99
-4 0 -7 267.76 22.33
-4 0 -7 287.57 21.23
4 0 -7 286.41 21.2
-4 0 7 277.72 22.12
4 0 7 275.2 21.63
-4 0 -7 266.7 20.49
4 0 7 281.62 21.88
-4 0 7 297.24 21.68
4 0 7 273.72 22.22
-4 0 -7 264.47 21.69
-4 0 7 263.23 21.37
4 0 8 2449.95 179.62
-4 0 -8 2470.96 180.42
-4 0 8 2489.87 179.38
-4 0 -8 2364.63 179.61
-4 0 8 2544.29 179.02
4 0 8 2435.07 180.15
4 0 -8 2586.35 179.87
-4 0 8 2474.65 179.36
4 0 8 2419.65 180.46
-4 0 8 2579.58 179.53
4 0 8 2401.11 179.8
4 0 -8 2521.17 179.98
4 0 8 2487.99 179.35
4 0 -8 2582 179.14
4 0 -8 2472.73 180.32
-4 0 -8 2338.47 178.39
-4 0 -8 2382.73 179.87
-4 0 8 2459.94 180.14
-4 0 -8 2400.97 179.72
4 0 9 588.65 48.53
-4 0 9 650.35 48.37
4 0 9 647.18 47.51
-4 0 -9 628.62 47.91
4 0 -9 670.4 48.22
-4 0 9 666.67 47.15
4 0 -9 613.6 47.19
-4 0 -9 622.36 47.26
4 0 9 634.67 48.02
4 0 9 593.05 47.69
-4 0 -9 643.32 47.79
-4 0 -9 601.79 47.99
-4 0 -9 653.68 48.58
4 0 -9 647.22 47.97
4 0 -9 601.3 48.39
4 0 9 646.49 48.35
-4 0 9 663.08 47.64
-4 0 9 651.58 47.55
4 0 -10 1107.3 82.52
-4 0 -10 1059.74 81.85
-4 0 -10 1061.75 81.12
4 0 -10 1104.9 81.14
4 0 -10 1117.13 81.9
4 0 10 1101.81 82.03
4 0 10 1107.58 82.29
-4 0 10 1076.43 81.4
-4 0 -10 1129.68 82.59
-4 0 10 1174.29 81.06
-4 0 10 1091.93 82.37
4 0 10 1050.46 82.73
-4 0 -10 1111.64 81.64
4 0 10 1113.12 81.76
4 0 10 1094.46 81.42
-4 0 -10 1051.96 81.94
-4 0 10 1134.39 81.55
-4 0 11 943.99 70.32
-4 0 11 944.24 68.81
4 0 -11 862.06 70.24
-4 0 -11 969.09 70.48
4 0 -11 949.44 69.73
4 0 11 938.88 69.6
-4 0 -11 978.85 70.15
4 0 11 906.51 70.46
4 0 11 892.68 69.77
4 0 -11 933.7 68.93
-4 0 -11 924.42 68.93
-4 0 -11 880.54 69.66
-4 0 11 926.15 69.23
4 0 11 955.72 70.16
4 0 11 910.93 69.3
-4 0 11 978.28 69.4
-4 0 -11 960.44 69.45
-4 0 12 6340.33 442.93
-4 0 12 5765.72 442
4 0 12 6243.64 443.21
-4 0 -12 6208.19 442.96
4 0 -12 6141.24 444.11
4 0 -12 6368.14 442.53
-4 0 -12 6132.54 442.46
-4 0 -12 6258.38 444.07
-4 0 12 6286.74 442.37
-4 0 12 6338.7 444.07
-4 0 -12 6209.75 443.4
4 0 12 6084.02 442.85
-4 0 12 6026.44 442.8
-4 0 -12 6289.11 443.72
4 0 -12 6239.01 443.33
4 0 12 6229.6 443.5
4 0 -12 5985.58 442.37
4 0 -12 5517.88 441.88
4 0 12 6336.2 443.77
4 0 12 6177.97 444.2
-4 0 -13 478.77 36.08
-4 0 13 446.38 34.65
-4 0 -13 490 36.39
4 0 13 479.56 36.17
-4 0 13 470.53 35.5
4 0 13 468.25 35.87
-4 0 13 476.97 35.01
-4 0 13 496.82 36.86
4 0 -13 485.05 35.2
4 0 13 478.78 36.19
4 0 -13 414.88 34.49
4 0 13 469.21 36.37
-4 0 -13 501.62 36.86
-4 0 -13 476.44 35.12
-4 0 -13 495.59 35.67
4 0 -13 502.29 36.09
4 0 -13 429.62 34.96
4 0 -13 472.8 36.82
4 0 13 477.45 35.62
-4 0 13 502.21 35.63
-4 0 -14 547.54 38.62
4 0 -14 515.77 38.12
4 0 -14 507.45 38.94
4 0 -14 495.88 39.77
4 0 14 553.53 39.55
4 0 -14 447.64 37.38
-4 0 -14 559.69 38.15
-4 0 14 473.66 38.35
-4 0 14 509.57 38.5
-4 0 14 471.63 37.59
4 0 14 558.71 39.05
-4 0 -14 569.51 39.96
4 0 14 544.68 39.18
4 0 -14 477.3 37.95
4 0 14 548.13 39.34
-4 0 -14 552.11 39.26
-4 0 14 534.45 39.86
4 0 -15 694.91 50.64
-4 0 -15 675.78 49.58
4 0 15 674.46 50.64
4 0 -15 656.29 51.39
-4 0 -15 679.32 51.34
-4 0 15 708.03 51.52
-4 0 15 647.13 49.97
4 0 -15 658.37 49.73
4 0 15 685.95 50.87
-4 0 -15 644.22 50.61
4 0 -15 630.59 49.54
-4 0 16 70.34 7.61
4 0 -16 60.2 6.43
-4 0 -16 63.52 7.31
4 0 16 59.22 6.47
4 0 16 40.66 6.13
4 0 -16 66.8 5.89
-4 0 16 65.59 6.15
4 0 -16 57.08 7.31
4 0 -16 59.47 5.66
-4 0 -16 54.59 6.49
-4 0 -16 55.36 5.58
4 0 17 251.14 19.72
4 0 -17 223.15 18.69
-4 0 -17 239.42 18.55
-4 0 -17 216.63 19.57
-4 0 17 237.4 20.53
4 0 -17 248.19 18.78
-4 0 17 227.06 18.98
4 0 17 232.04 19.79
-4 0 -17 230.39 20.21
4 0 -17 261.46 19.81
-4 0 18 71.11 8.35
-4 0 -18 59.05 7.67
4 0 18 72.15 7.49
4 0 -18 77.58 7.66
4 0 -18 74.9 6.72
4 0 18 51.63 7.18
4 0 -18 80.58 6.91
-4 0 -18 69.52 6.44
-4 0 -18 66.49 7.62
-4 0 -19 28.44 3.99
-4 0 19 25.48 5.14
4 0 19 24.88 4.5
-4 0 -19 21.97 4.66
-4 0 -19 29.52 3.43
4 0 -19 28.72 4.48
4 0 -19 19.45 3.43
-4 0 -19 32.03 4.79
4 0 19 27.07 4.33
-4 0 20 763.51 59.06
4 0 -20 759.3 58.05
4 0 20 746.53 58.29
-4 0 -20 708.85 58.56
4 0 20 773.19 57.94
-4 0 -20 777.58 56.7
-4 0 -20 770.24 57.49
-4 0 -20 734.95 58.14
-4 0 20 776.58 57.71
4 0 -20 755.29 56.95
4 0 21 93.28 10.22
-4 0 -21 120.59 10.3
-4 0 -21 114.32 11.49
-4 0 -21 109.21 9.38
4 0 -21 100.42 10.49
-4 0 -21 99.92 10.7
-4 0 21 114.52 10.47
4 0 21 110.39 10.93
4 0 -21 109.78 9.65
-4 0 21 104.37 11.48
4 0 -22 4.18 1.99
4 0 22 8.13 3.03
4 0 -22 5.22 2.57
-4 0 -22 1.84 2.42
4 0 22 10.52 3.28
-4 0 -22 9.81 2.55
-4 0 22 8.72 2.83
-4 0 22 7.02 3.5
-4 0 -22 8.2 2.17
-4 0 -22 4.34 3.25
-4 0 -23 37.34 4.98
-4 0 -23 26.83 5.18
4 0 23 36.02 5.41
-4 0 -23 39.83 6.17
-4 0 23 44.17 5.43
4 0 -23 40.85 5.75
-4 0 23 29.86 6.23
4 0 23 29.23 5.43
4 0 -23 39.03 4.54
4 0 -24 20.52 4.43
4 0 -24 25.13 3.85
-4 0 -24 23.81 4.04
-4 0 -24 17.13 4.77
-4 0 24 26.44 4.52
4 0 24 22.37 4.29
-4 0 24 22.52 5.33
4 0 24 24.87 5.02
-4 0 -24 37.26 5.45
-4 0 -25 28.38 5.28
-4 0 -25 25 5.45
4 0 -25 23.59 4.95
4 0 25 31.28 5.4
-4 0 25 24.99 5.78
-4 0 25 24.24 4.47
4 0 25 30.11 5.1
-4 0 -25 29 4.56
4 0 -25 30.33 4.27
-4 0 -26 48.12 6.28
4 0 -26 39.11 6.71
4 0 26 49.72 6.8
4 0 -26 62 6.15
4 0 26 39.51 6.88
-4 0 26 46.94 6.59
-4 0 26 63.14 8.66
-4 0 -26 50.05 7.59
-4 0 -26 52.51 7.23
-4 0 -27 599.6 48.84
4 0 -27 647.96 49.01
-4 0 -27 606.47 49.41
4 0 27 646.38 48.42
4 0 -27 616.96 47.2
4 0 27 560.91 48.56
-4 0 27 585.09 49.61
-4 0 27 666.35 48.16
-4 0 -28 109.62 12.73
4 0 -28 122.68 10.96
4 0 28 119.68 11.89
-4 0 28 116.58 11.59
4 0 -28 117.4 12.46
4 0 28 117.12 12.48
-4 0 -28 112.24 12.35
-4 0 28 120.86 13.35
-4 0 -29 12.03 4.25
4 0 -29 13.79 3.26
-4 0 29 9.35 3.48
4 0 29 12.56 3.82
4 0 -29 11.1 4.02
-4 0 29 13.83 4.81
-4 0 -29 11.96 4.26
4 0 29 11.83 4.06
4 0 30 -4.06 4.02
4 0 30 -0.68 3.15
-4 0 30 4.06 4.04
4 0 -30 0.46 2.16
-4 0 -30 4.74 3.58
4 0 -30 3.32 3.22
-4 0 30 2.99 2.72
-4 0 -30 3.32 3.3
4 0 -31 20.33 3.75
4 0 31 10.03 4.73
4 0 31 13.35 3.93
-4 0 -31 16.65 4.91
4 0 -31 13.04 4.25
-4 0 31 27.16 4.64
-4 0 -31 12 4.27
4 0 32 15.92 4.36
-4 0 32 12.01 3.68
4 0 -32 19.48 3.79
-4 0 -32 14.17 4.72
4 0 -32 11.65 4.14
-4 0 -32 21.18 5.49
-4 0 33 18.87 4.53
4 0 33 18.62 4.78
-4 0 -33 23.74 5.43
4 0 -33 22.54 4.18
4 0 -33 18.73 5.37
-4 0 -33 9.33 4.71
4 0 -34 193.13 16.38
-4 0 -34 207.95 18.83
4 0 34 172.28 17.29
-4 0 -34 178.93 18.72
4 0 -34 172.38 18.26
-4 0 34 184.01 16.98
4 0 -35 57.67 6.65
4 0 35 47.17 7.25
-4 0 35 41.11 6.68
-4 0 -35 37.2 7.55
4 0 -35 40.21 7.76
-4 0 -35 57.14 8.5
4 0 -36 145.6 16.37
-4 0 -36 158.41 17
4 0 36 173.6 15.99
-4 0 36 153.8 15.07
4 0 -36 154.81 14.23
-4 0 -36 142.42 16.09
4 0 -37 25.79 6.54
4 0 -37 25.62 4.61
-4 0 37 18 4.85
-4 0 -37 18.42 5.76
-4 0 -37 19.59 5.84
4 0 37 25.67 5.65
-4 0 38 -1.48 3.09
4 0 -38 4.57 3.1
-4 0 -38 5.25 4.49
4 0 -38 7.71 4.5
4 0 38 4.24 3.93
-4 0 -38 8.27 4.58
4 0 -39 7.99 4.44
4 0 39 6.95 4.1
-4 0 -39 7.25 4.57
-4 0 39 0.75 3.36
-4 0 -39 1.07 4.17
-4 0 -40 11 5.03
-4 0 40 5.39 3.87
4 0 40 8.89 4.23
4 0 -40 8.18 4.34
-4 0 -40 17.31 5.75
-4 0 41 51.77 7.72
4 0 -41 28.93 7.57
-4 0 -41 42.74 8.31
-4 0 -41 46.75 8.79
4 0 41 39.06 7.31
-4 0 -42 117.28 14.59
-4 0 42 132.16 13.68
4 0 42 131.32 14.16
-4 0 -42 122.6 15.37
4 0 -42 116.92 14.91
-5 0 0 0.33 1.61
-5 0 0 0.29 1.57
5 0 0 -0.6 1.76
-5 0 0 0.29 1.38
5 0 0 0.41 1.13
-5 0 0 -0.41 1.07
5 0 0 0.11 0.78
5 0 0 -0.69 1.66
5 0 0 0.3 1.33
5 0 0 0.37 1.57
5 0 0 -0.3 1.58
-5 0 0 -0.34 1.64
-5 0 -1 -0.3 1.56
-5 0 -1 0.29 1.43
-5 0 1 0.83 1.01
5 0 -1 0.67 1.59
5 0 1 2.29 1.59
5 0 -1 -0.29 1.39
5 0 -1 -0.2 1.08
5 0 1 0.61 1.33
-5 0 -1 -0.69 1.7
5 0 1 0.75 1.74
5 0 1 -0.22 0.75
-5 0 -1 0.34 1.58
5 0 1 0.31 1.66
-5 0 1 1.34 1.71
5 0 -1 0.93 1.61
5 0 -1 0.34 0.74
-5 0 1 0.29 1.44
-5 0 1 0.66 1.63
-5 0 -1 0.2 1.06
5 0 -1 -0.36 1.68
5 0 1 1.07 1.68
5 0 -1 -1.18 1.65
5 0 1 -0.21 1.13
-5 0 2 0.28 1.34
-5 0 2 1.55 1.63
-5 0 2 -0.32 1.58
5 0 2 -0.28 1.41
5 0 2 0.62 1.45
5 0 2 -0.34 0.85
5 0 -2 0.33 1.56
-5 0 2 0.33 1.51
5 0 -2 1.47 1.36
5 0 -2 3.25 1.73
5 0 2 0.37 1.92
-5 0 -2 -0.62 1.64
-5 0 -2 0.2 0.96
-5 0 -2 0.6 1.41
5 0 2 -1.14 1.86
5 0 2 -2.97 1.21
5 0 -2 -0.4 1
5 0 -2 -0.58 0.73
-5 0 -2 -0.68 1.66
5 0 -2 0.86 1.56
-5 0 2 -0.21 1.09
-5 0 -2 0.35 1.83
-5 0 -3 -0.2 1
-5 0 -3 -0.98 1.7
5 0 3 0.95 1.52
-5 0 3 1.13 1.48
5 0 -3 -1.1 1.75
-5 0 3 0.63 1.75
-5 0 3 1.28 1.47
5 0 3 -0.39 1.85
5 0 3 0.56 1.48
5 0 -3 -0.34 1.59
5 0 -3 0.89 1.32
5 0 -3 -0.28 1.48
5 0 3 -0.86 1.11
5 0 3 -0.38 1.95
5 0 -3 0.99 1.72
-5 0 3 0.65 1.51
5 0 3 -0.34 0.8
-5 0 3 -0.66 1.13
-5 0 -3 0.92 1.52
5 0 -3 0.99 1.17
5 0 -3 0.36 0.82
5 0 4 1.63 1.61
-5 0 4 -0.33 1.66
-5 0 4 -0.23 1.12
5 0 -4 1.1 1.65
-5 0 4 0.32 1.8
-5 0 4 1.13 1.49
5 0 4 0.79 1.86
5 0 -4 -1.07 1.62
5 0 4 0.4 1.8
5 0 -4 -0.6 1.38
5 0 -4 -0.28 1.46
-5 0 4 -0.33 1.57
-5 0 -4 -0.63 1.64
5 0 -4 1.4 1.05
5 0 -4 0.63 0.86
-5 0 -4 -1.3 1.89
5 0 4 -0.27 1.5
-5 0 -4 -1.04 1.77
-5 0 -4 1.24 1.12
5 0 -5 0.38 1.76
-5 0 -5 -0.36 1.61
-5 0 -5 0.21 1.08
5 0 5 0.33 1.36
-5 0 -5 -1.78 1.94
-5 0 -5 -0.66 1.49
5 0 -5 -0.4 1.07
5 0 -5 0.61 1.33
5 0 5 -0.86 1.18
-5 0 5 -0.31 1.51
-5 0 5 -0.24 1.11
5 0 5 1.22 1.77
5 0 5 -0.41 1.81
-5 0 5 -0.67 1.67
5 0 5 -3.64 1.71
5 0 -5 -0.37 1.76
-5 0 5 -0.56 1.44
-5 0 5 2.07 1.65
-5 0 -6 -1.09 1.1
5 0 -6 -0.2 1.07
5 0 6 -1.04 1.57
-5 0 -6 0.46 1.95
5 0 -6 0.4 1.83
-5 0 6 -0.5 1.16
5 0 6 -2.28 1.68
5 0 -6 -0.31 1.42
5 0 6 0.45 1.11
5 0 6 1.67 1.82
-5 0 6 0.72 1.77
5 0 -6 -0.74 1.81
-5 0 6 0.18 1.08
5 0 6 0.42 1.84
-5 0 -6 0.38 1.79
-5 0 6 -0.57 1.3
-5 0 -6 0.34 1.55
-5 0 6 0.31 1.53
5 0 7 -0.24 1.29
-5 0 7 0.58 1.4
5 0 -7 0.21 0.99
5 0 7 2.06 1.7
5 0 7 -0.43 1.74
-5 0 -7 1.07 1.58
-5 0 7 -0.31 1.51
-5 0 7 0.78 1.23
5 0 7 0.48 1.95
-5 0 -7 -0.47 1.82
5 0 7 0.71 1.34
5 0 7 -0.43 1.8
-5 0 7 0.75 1.67
5 0 -7 -0.84 1.84
5 0 -7 1.14 1.75
-5 0 -7 0.22 1.08
5 0 -7 -0.32 1.56
-5 0 -7 0.07 0.56
-5 0 7 -0.37 1.08
-5 0 -8 1.14 1.29
5 0 -8 1.55 1.85
-5 0 8 -0.4 1.72
5 0 8 2.59 1.92
-5 0 -8 0.74 1.97
5 0 -8 0.43 1.18
-5 0 8 0.59 1.46
-5 0 -8 -1.31 2.38
-5 0 -8 0.46 0.51
5 0 8 1.31 2.43
5 0 8 3.49 2.66
-5 0 8 0.28 1.25
5 0 8 1.24 1.28
-5 0 8 0.19 1.12
5 0 8 0.61 1.58
-5 0 -8 3.35 2.44
-5 0 8 -0.63 1.56
-5 0 8 0.27 1.23
5 0 -8 -1.35 2.36
5 0 9 0.76 1.66
-5 0 9 -0.43 2.07
5 0 9 -0.9 1.88
-5 0 9 -0.3 1.51
5 0 9 -0.26 1.26
-5 0 9 -0.28 1.38
5 0 -9 0.47 2.04
5 0 -9 1.09 1.08
5 0 9 1.56 1.85
5 0 9 -0.32 1.55
-5 0 -9 -0.33 2.13
-5 0 -9 0.44 0.56
5 0 -9 1.19 1.8
-5 0 -9 -0.5 2.07
5 0 -9 -0.76 1.9
-5 0 -9 1.94 1.83
-5 0 -9 0.23 1.18
-5 0 9 -0.19 1.12
-5 0 9 -1.15 1.44
-5 0 10 -0.99 1.12
5 0 10 -0.55 1.46
5 0 -10 0.5 2.22
-5 0 -10 -2.05 2.04
-5 0 10 2.76 1.7
-5 0 -10 0.24 1.13
-5 0 -10 -1 1.9
5 0 10 0.46 1.83
5 0 10 1.09 2.1
5 0 -10 1.23 1.89
-5 0 10 4.92 2.39
-5 0 10 0.89 1.35
5 0 -10 2.24 1.28
-5 0 -10 0.82 1.75
5 0 -10 2.32 1.72
-5 0 -10 0.24 1.33
5 0 10 0.79 1.76
-5 0 -10 0.19 0.52
5 0 10 -0.66 1.61
-5 0 -11 0.24 1.28
-5 0 11 -0.2 1.15
5 0 11 0.47 1.88
5 0 11 1.72 1.63
-5 0 -11 0.53 2
-5 0 11 0.94 1.58
5 0 -11 0.4 1.66
5 0 11 0.41 1.76
-5 0 -11 0.13 0.57
-5 0 -11 -1.27 1.96
-5 0 -11 -0.39 1.68
5 0 -11 0.52 2.22
-5 0 11 2.76 1.77
5 0 -11 1.7 2
5 0 11 2.83 2.13
5 0 -11 -0.46 1.27
-5 0 11 2.36 2.09
-5 0 -11 -0.68 1.62
5 0 11 2.07 1.79
-5 0 -12 2.47 1.79
-5 0 12 -0.32 1.52
5 0 12 1.77 2.23
5 0 12 -0.36 1.78
5 0 -12 -1.22 1.78
5 0 -12 2.76 2.5
-5 0 -12 0.55 1.95
5 0 12 0.43 1.87
-5 0 -12 -1.23 1.4
-5 0 12 0.5 2.12
5 0 13 -0.61 2.24
-5 0 13 0.33 1.74
5 0 13 1.34 1.91
-5 0 -13 -0.25 1.37
-5 0 -13 3.4 2.25
5 0 13 1.14 1.88
5 0 -13 -1.15 2.56
-5 0 13 -1.05 2.09
-5 0 -13 -0.43 1.82
5 0 -13 -0.42 1.64
-5 0 -14 2.94 2.28
5 0 -14 -0.44 1.6
-5 0 -14 -0.5 1.61
-5 0 14 3.35 2.43
5 0 14 -1.9 2.25
-5 0 -14 -0.45 1.9
-5 0 14 -1.03 1.67
5 0 -14 0.24 1.24
5 0 14 0.4 1.83
5 0 14 1.4 1.71
-5 0 -15 -1.8 1.8
5 0 -15 0.25 1.28
-5 0 15 1.15 2.66
5 0 -15 -1.36 1.67
-5 0 15 -0.36 1.59
-5 0 -15 2.33 1.81
-5 0 -15 -0.61 2.47
5 0 15 1.46 1.94
-5 0 16 -1.22 2.59
-5 0 -16 -0.49 1.62
5 0 16 0.5 2
5 0 -16 0.94 1.78
-5 0 -16 -1.05 1.42
-5 0 -16 -1.26 2.18
-5 0 16 0.74 1.64
-5 0 17 0.77 1.61
-5 0 -17 -0.27 1.45
-5 0 -17 -1.31 2.4
-5 0 -17 0.51 2.03
5 0 -17 -0.98 1.85
5 0 17 -3.67 2.51
-5 0 17 -1.28 2.95
5 0 18 5.15 2.1
-5 0 -18 -3.38 2.94
-5 0 18 -1.2 1.75
5 0 18 4.39 2.44
5 0 -18 -1.54 2.19
-5 0 -18 0.28 1.49
-5 0 18 5.28 4.06
-5 0 -18 -0.53 1.9
-5 0 -19 -0.56 2.1
-5 0 -19 -2.1 2.71
-5 0 19 0.69 2.62
5 0 19 0.57 2.2
5 0 -19 -1.07 2.02
-5 0 19 0.83 1.81
5 0 19 0.53 2.17
-5 0 20 0.72 2.92
-5 0 -20 2.9 2.53
5 0 -20 -0.56 2.27
-5 0 20 0.43 1.9
5 0 20 0.55 2.35
-5 0 -20 2.17 2.65
5 0 -21 -2.33 2.84
-5 0 21 -1.51 3.22
-5 0 -21 3.02 2.52
5 0 21 0.61 2.55
5 0 21 1.13 2.7
-5 0 -21 -2.25 2.91
-5 0 -22 -1.55 2.75
-5 0 -22 1.89 2.5
-5 0 22 -0.78 3.17
5 0 -22 -3.65 3.29
5 0 22 0.58 2.65
5 0 22 -2.56 2.85
-5 0 23 -0.8 3.42
5 0 23 0.6 2.79
5 0 23 0.66 2.82
-5 0 23 -1.08 2.79
-5 0 -23 -0.8 3.26
5 0 -23 -3.81 3.2
-5 0 -23 -3.28 2.54
5 0 24 -1.36 2.97
-5 0 -24 2.04 2.71
5 0 24 -1.23 3.11
-5 0 24 -3.89 3.17
5 0 -24 -1.97 3.09
-5 0 24 -2.53 3.51
-5 0 -24 -2.49 3.04
-5 0 -25 -1.71 3.64
-5 0 25 3.43 3.01
5 0 -25 -1.37 3.23
-5 0 25 -0.87 3.77
5 0 25 3.56 3.16
5 0 25 -1.27 3.15
-5 0 -25 2.12 3.08
5 0 26 3.28 2.8
-5 0 26 -0.89 4.27
-5 0 -26 3.52 3.59
-5 0 -26 -1.46 2.76
5 0 26 3.66 2.84
-5 0 26 -1.17 2.98
5 0 27 0.68 2.62
-5 0 27 0.92 3.55
5 0 -27 -3.75 2.91
-5 0 -27 -2.27 2.78
5 0 27 2.26 3.14
-5 0 -27 0.91 3.02
-5 0 27 -0.59 3.13
5 0 28 -1.55 3.3
5 0 28 -0.7 3.04
-5 0 -28 0.94 3.34
-5 0 28 -2.45 2.98
5 0 -28 -3.87 3.08
-5 0 28 -0.94 3.83
-5 0 -28 2.36 3.05
-5 0 29 -1.97 4.02
-5 0 -29 -1.63 2.8
-5 0 -29 3.86 3.43
5 0 29 -2.87 3.43
5 0 29 0.8 3.61
5 0 -29 4.84 3.13
-5 0 29 -1.25 2.93
-5 0 30 2.02 3.92
-5 0 -30 -1.99 3.75
5 0 -30 1.68 3.18
-5 0 30 -2.54 3.53
-5 0 -30 1.68 3.08
5 0 30 -2.92 3.37
5 0 31 -2.25 3.53
-5 0 31 -3.27 3.39
-5 0 -31 -0.87 3.09
-5 0 -31 -2.04 3.96
5 0 -31 0.88 2.93
5 0 -32 0.9 3.01
-5 0 32 -2 3.4
-5 0 -32 0.89 3.28
5 0 32 -1.54 4
-5 0 -32 1.05 3.49
-5 0 33 -6.15 3.6
-5 0 -33 -2.76 3.48
5 0 33 -0.79 3.99
5 0 -33 -1.88 4.02
-5 0 -33 -2.15 4.39
-5 0 -34 -1.9 3.58
5 0 -34 -1.93 3.45
-5 0 34 -0.7 3.23
-5 0 -34 -8.84 4.82
-5 0 -35 -3.9 3.99
5 0 -35 -5.03 4.58
-5 0 -35 -4.53 5.44
-5 0 35 -3.55 3.96
5 0 35 -8.33 4.92
-5 0 -36 1 3.33
5 0 -36 -1.05 3.84
-5 0 36 -2.18 3.83
5 0 36 -4.26 4.68
-5 0 -36 -4.64 4.95
5 0 37 -3.49 4.39
-5 0 37 0.74 3.17
-5 0 -37 1.03 3.42
-5 0 -37 1.19 3.81
5 0 -37 -2.15 3.82
-5 0 -38 -1.22 4.19
5 0 38 -0.89 3.89
5 0 -38 3.34 4.32
-5 0 -38 -3.16 4.08
-5 0 38 5.32 3.64
-5 0 39 -2.33 3.78
-5 0 -39 -1.24 3.83
5 0 39 -1.83 4.45
5 0 -39 -5.7 4.06
-5 0 -39 -2.15 3.83
-5 0 -40 -1.27 4.52
5 0 40 -3.73 4.39
-5 0 -40 1.1 3.67
-5 0 40 -6.34 4.12
5 0 -40 -1.18 4.21
-5 0 41 -3.23 4.61
5 0 -41 -4.82 5.48
-5 0 -41 -7.77 5.77
-5 0 -41 -3.37 4.49
6 0 0 29.03 3.8
6 0 0 23.11 4.41
6 0 0 22.25 3.94
6 0 0 22.52 3.18
6 0 0 28.52 4.02
6 0 0 26.09 3.83
-6 0 0 25.72 3.07
-6 0 0 22.76 3.63
6 0 0 21.29 2.52
-6 0 0 35.7 4.16
-6 0 0 25.03 3.88
-6 0 1 202.98 15.83
-6 0 -1 191.34 15.74
-6 0 1 199.6 14.96
6 0 1 167.14 14.22
6 0 -1 181.77 15.44
6 0 -1 188.43 15.41
6 0 -1 219.19 16.02
-6 0 -1 186.38 15.43
6 0 1 197.85 15.91
6 0 1 186.91 15.94
-6 0 1 216.26 15.94
6 0 -1 171.95 14.22
6 0 1 190.34 14.91
-6 0 1 175.74 15.27
6 0 1 183.37 15.4
-6 0 -1 191.36 14.87
-6 0 -1 204.8 15.89
6 0 -1 189.01 15.51
6 0 1 176.66 15.51
6 0 -1 206.45 16.13
-6 0 -1 184.96 15.56
6 0 1 190.19 15.42
6 0 -1 170.41 14.73
-6 0 -2 94.65 9.81
6 0 -2 136.58 10.37
6 0 2 86.31 8.45
6 0 2 115.08 9.28
6 0 -2 109.3 9.73
6 0 -2 132.86 10.71
6 0 2 105.95 9.62
6 0 -2 107.39 8.61
-6 0 2 124.23 10.18
6 0 -2 115.72 10.02
6 0 2 108.74 10.48
-6 0 -2 109.29 10
6 0 2 94.58 9.56
-6 0 2 111.27 9.23
6 0 -2 108.83 9.17
-6 0 2 108.72 9.68
-6 0 -2 112.83 10.15
-6 0 -2 108.29 9.14
6 0 2 120.14 10.36
6 0 -2 113.12 9.84
-6 0 2 132.15 10.32
-6 0 -2 96.6 9.53
6 0 3 388.63 31.8
-6 0 -3 458.77 32.93
6 0 3 437.6 32.41
6 0 -3 402.57 32.33
6 0 -3 378.76 31.68
-6 0 3 439.24 32.73
6 0 3 379.49 31.19
6 0 3 440.15 32.66
6 0 3 459.31 33.24
6 0 -3 450.52 32.86
6 0 3 425.38 33.04
6 0 -3 420.04 32.43
-6 0 3 419.54 32.36
-6 0 -3 431.51 32.74
6 0 -3 414.67 31.27
-6 0 -3 452.03 32.62
6 0 -3 414.46 32.64
-6 0 3 466.86 32.83
-6 0 3 427.11 31.94
-6 0 -3 435.62 31.87
-6 0 3 431.72 32.61
6 0 -4 362.5 27.35
6 0 4 357.11 29.09
6 0 4 345.88 29.16
6 0 -4 391.52 28.62
-6 0 4 399.06 28.85
-6 0 4 395.38 28.88
6 0 4 359.45 28.33
6 0 -4 356.26 28.8
6 0 -4 369 29
-6 0 -4 343.89 28.72
6 0 4 357.48 28.62
-6 0 4 368.49 28.02
-6 0 -4 368.05 27.88
6 0 -4 350.91 27.79
6 0 -4 361.42 28.45
-6 0 -4 358.96 28.55
-6 0 4 387.82 28.75
-6 0 4 357.69 28.35
-6 0 5 1426.88 106.23
6 0 -5 1328.26 105.99
6 0 5 1497.18 106.05
6 0 -5 1422.19 105.99
-6 0 -5 1643.5 107.54
-6 0 5 1566.62 106.52
6 0 5 1381.33 105.92
-6 0 5 1482.11 106.47
6 0 5 1396.68 105.5
6 0 -5 1392.68 105.39
-6 0 5 1392.02 105.94
6 0 -5 1417.43 104.94
-6 0 -5 1375.84 106.37
6 0 -5 1435.08 106.58
6 0 5 1426.05 106.77
6 0 -5 1426.61 106.51
6 0 5 1510.29 106.95
-6 0 -5 1467.9 105.51
-6 0 -5 1467.97 106.27
-6 0 5 1436.62 105.67
6 0 5 1396.48 106.26
-6 0 -6 423.02 33.74
-6 0 6 444.3 33.31
6 0 -6 433.19 32.96
6 0 6 448.93 33.92
-6 0 -6 400.31 33.86
-6 0 -6 445.81 33.05
6 0 -6 422.97 33.62
-6 0 6 493.48 34.14
6 0 6 456.45 34.45
6 0 -6 423.3 34.04
-6 0 6 403.33 33.78
-6 0 6 434.61 32.79
6 0 6 422.26 33.5
6 0 -6 452.14 33.63
-6 0 -6 503.55 35.05
6 0 -6 419.24 34.09
6 0 6 430.02 33.1
6 0 -6 430.15 32.52
6 0 7 133.21 10.49
6 0 7 130.24 11.61
6 0 -7 113.95 9.74
-6 0 -7 140.16 12.03
6 0 7 122.75 10.8
-6 0 -7 130.82 11.4
6 0 -7 106.77 10.99
6 0 -7 120.2 10.93
-6 0 7 122.34 11.15
6 0 7 142.9 12.29
6 0 -7 104.5 11.15
-6 0 -7 142.09 11.3
-6 0 7 120.03 10.04
6 0 7 111.91 10.94
-6 0 7 113.7 10.42
-6 0 -7 134.9 10.37
6 0 8 115.98 10.47
-6 0 8 106.45 9.81
-6 0 -8 107.87 10.42
6 0 -8 122.28 10.71
-6 0 8 113.45 9.4
6 0 -8 103.86 10.11
6 0 8 117.58 11.27
-6 0 -8 106.41 10.97
-6 0 -8 114.87 9.59
6 0 8 114.87 10.16
-6 0 -8 106.15 10.52
-6 0 8 118.58 10.72
6 0 8 123.91 11.05
-6 0 -9 364.73 27.83
-6 0 -9 320.25 25.84
-6 0 9 369.04 27.18
-6 0 9 319.6 26.22
6 0 9 329.18 26.44
-6 0 -9 312.48 26.73
6 0 9 348.37 27.4
-6 0 9 354.46 26.34
6 0 9 332.75 26.81
6 0 -9 365.29 27.16
6 0 9 318.59 27.58
-6 0 10 953.54 70.98
-6 0 10 857.38 70.72
-6 0 -10 949.43 70.5
6 0 10 999.53 72.12
6 0 10 954.05 71.53
-6 0 10 953.88 71.7
6 0 -10 935.71 71.57
-6 0 -10 1019.44 72.51
6 0 10 957.9 72.52
6 0 -10 964.14 71.65
6 0 10 977.71 71.17
-6 0 -11 866.82 64.31
-6 0 -11 826.11 62.41
6 0 11 839.7 63.45
6 0 -11 870.16 63.54
6 0 -11 837.75 63.59
6 0 11 788.59 64.3
-6 0 11 861.78 62.98
-6 0 11 844.79 63.72
6 0 11 816.68 63.01
6 0 12 58.26 5.87
6 0 12 42.57 5.97
-6 0 -12 38.33 5.81
-6 0 -12 38.77 4.34
6 0 12 45.1 5.14
-6 0 12 36.08 4.77
6 0 -12 31.56 4.93
6 0 -12 31.17 5.18
-6 0 -12 38.37 4.46
-6 0 12 38.17 5.54
6 0 13 1186.92 86.98
6 0 -13 1116.25 86.96
-6 0 13 1122.32 87.23
6 0 -13 1197.64 86.99
-6 0 -13 1140.49 85.81
-6 0 -13 1171.14 85.83
-6 0 13 1070.49 86.13
-6 0 -13 1234.1 87.95
6 0 13 1174.26 88.14
6 0 13 1240.93 86.7
6 0 -14 79.03 8.45
-6 0 14 78.68 8.97
-6 0 -14 86.9 7.68
6 0 14 89.46 9.75
-6 0 14 83.87 8.04
-6 0 -14 87.29 9.32
6 0 -14 77.25 8.53
6 0 14 78.26 8.49
-6 0 -14 84.76 8.79
6 0 15 96 9.15
6 0 15 102.48 10.59
6 0 -15 91.44 9.12
-6 0 15 69.03 8.17
-6 0 15 84.28 9.39
-6 0 -15 102.27 10.23
-6 0 -15 105.81 9.46
6 0 -15 78.43 9.09
-6 0 16 35.1 4.93
6 0 16 44.82 5.79
-6 0 16 46.55 6.31
6 0 -16 42.01 5.84
-6 0 -16 35.87 5.41
6 0 16 52.74 6.95
-6 0 -16 37.41 6.01
6 0 -16 42.34 5.86
-6 0 -17 75.01 8.76
6 0 -17 61.03 7.65
-6 0 17 58.93 8.16
6 0 17 77.54 8.01
-6 0 -17 76.7 8.13
-6 0 17 62.62 7.11
6 0 -18 80.87 9.21
-6 0 18 101.93 10.54
-6 0 -18 91.72 10.33
-6 0 -18 81.86 9.4
6 0 18 103.39 9.78
-6 0 18 89.97 8.94
-6 0 19 568.03 44.84
6 0 -19 613.21 45.59
-6 0 19 657.07 46.63
-6 0 -19 575.6 46.36
-6 0 -19 545.12 45.32
6 0 19 562.06 45.49
6 0 20 1029.1 76.63
-6 0 20 987.04 75.77
-6 0 -20 991.09 77.36
6 0 -20 999.2 76.48
-6 0 -20 989.84 76.49
-6 0 20 1066.8 77.41
6 0 21 456.97 37.33
-6 0 -21 471.48 38.3
6 0 -21 484.39 37.42
-6 0 21 500.76 38.36
-6 0 21 448.69 36.52
-6 0 -21 459.59 37.29
-6 0 -22 408.07 33.36
6 0 22 404.47 32.45
6 0 -22 422.12 32.5
-6 0 22 418.8 33.31
-6 0 -22 395.67 32.36
-6 0 22 360.8 31.42
6 0 23 529.97 42.75
-6 0 23 549.04 43.59
-6 0 -23 565.22 43.91
6 0 -23 517.85 42.61
-6 0 -23 543.54 42.89
6 0 -24 275.41 23.18
-6 0 -24 285.05 24.29
6 0 24 274.23 23.22
-6 0 24 274.98 24.08
-6 0 -24 238.18 22.86
-6 0 25 360.91 30.96
6 0 -25 383.49 31.57
-6 0 -25 382.88 31.75
-6 0 25 356.73 32.13
6 0 25 408.77 31.74
-6 0 -25 397.85 32.69
6 0 25 392.21 31.7
-6 0 -26 33.85 5.92
-6 0 26 32.09 6.65
-6 0 -26 30.65 6.22
6 0 -26 24.54 5.23
-6 0 26 30.18 5.64
6 0 26 31.91 5.69
6 0 26 25.9 5.45
-6 0 -27 105.25 11.92
6 0 -27 91.29 10.62
6 0 27 98.57 10.9
-6 0 27 83.79 10.16
6 0 27 103.47 10.79
-6 0 27 89.47 11.45
-6 0 -27 101.02 11.13
6 0 28 95.58 10.98
-6 0 -28 94.66 11.05
-6 0 28 99.96 10.61
6 0 -28 91.73 10.86
6 0 28 105.46 11.2
-6 0 28 99.23 12.06
-6 0 -28 83.47 11.37
6 0 -29 137.28 13.59
-6 0 -29 98.45 12.69
-6 0 29 129.52 12.76
-6 0 29 131.79 14.47
-6 0 -29 124.93 14.14
6 0 29 133.58 13.36
-6 0 30 180.41 15.6
6 0 30 174.09 16.08
-6 0 -30 150.91 16.54
-6 0 -30 141.56 15.73
6 0 -30 147.14 15.77
-6 0 -31 113.32 12.24
-6 0 31 93.95 10.84
6 0 -31 79.67 11.13
6 0 31 112.26 11.87
-6 0 -31 108.12 12.68
-6 0 -32 23.5 5.52
6 0 32 25.66 5.85
-6 0 -32 24.98 6.3
-6 0 32 30.46 5.72
6 0 -32 22.03 5.6
6 0 -33 340.39 28.87
-6 0 -33 273.47 28.75
-6 0 33 366 27.95
6 0 33 368.76 28.7
-6 0 -33 278.89 28.12
-6 0 34 93.57 10.54
6 0 -34 73.25 10.68
-6 0 -34 78.35 10.81
-6 0 -34 96.01 12.15
6 0 34 86.78 10.83
-6 0 -35 242.79 25.32
-6 0 -35 254.94 26.26
6 0 -35 281.76 25.96
6 0 35 327.66 25.95
-6 0 35 310.56 24.98
6 0 36 52.65 8.65
-6 0 -36 58.35 9.33
6 0 -36 55.76 9.34
-6 0 -36 68.13 10.03
-6 0 36 60.66 8.26
-6 0 37 87.58 10.47
-6 0 -37 85.48 11.98
6 0 -37 67.69 10.63
6 0 37 96.48 11.19
-6 0 -37 86.59 11.25
6 0 38 34.1 6.88
-6 0 38 27.54 5.83
-6 0 -38 25.34 6.61
-6 0 -38 27.44 6.87
6 0 -38 25.65 6.51
-6 0 -39 5.4 4.22
6 0 39 10.63 4.81
-6 0 39 7.23 4.37
-6 0 -39 6.36 4.69
6 0 -39 5.77 4.5
6 0 -40 20.03 6.26
6 0 40 13.8 5.29
-6 0 40 20.41 5.21
-6 0 -40 23.34 6.96
7 0 0 0.42 1.67
-7 0 0 1.46 1.47
7 0 0 1.24 1.8
7 0 0 1.45 1.92
7 0 1 -0.98 1.94
7 0 -1 0.81 0.92
7 0 1 0.84 1.76
-7 0 1 -2.07 1.39
7 0 -1 -0.42 1.74
7 0 1 0.29 1.29
7 0 -1 -0.82 1.82
7 0 -1 -0.48 1.99
-7 0 -1 0.29 1.35
-7 0 2 0.6 1.34
7 0 -2 -0.16 0.94
7 0 2 0.86 1.8
-7 0 -2 1.23 1.83
7 0 -2 -0.94 1.87
7 0 -2 0.81 1.76
7 0 2 0.51 2.01
7 0 2 -0.29 1.39
7 0 -2 -0.42 1.62
-7 0 -2 -0.28 1.23
7 0 -3 -0.42 1.57
-7 0 3 0.62 1.32
7 0 3 -0.88 1.4
-7 0 -3 1.41 1.35
7 0 3 -1.55 2.1
-7 0 -3 -2.14 1.98
7 0 -3 1.15 0.98
7 0 -3 -0.94 1.82
7 0 -3 1.2 1.84
7 0 3 0.44 1.6
7 0 4 -2.11 2.09
-7 0 -4 0.85 1.4
-7 0 4 -0.32 1.42
-7 0 -4 0.44 1.92
-7 0 4 2.23 1.94
7 0 -4 0.33 0.93
7 0 4 -0.44 1.76
7 0 -4 -0.42 1.58
7 0 -4 0.39 1.97
7 0 -5 1.7 1.81
7 0 5 -1.65 2.39
7 0 -5 0.52 2.01
7 0 5 -0.45 1.69
7 0 -5 0.79 1.85
-7 0 5 -1.35 1.92
-7 0 5 -0.66 1.41
-7 0 -5 -2.74 2.03
7 0 5 -1.46 1.71
-7 0 -5 1.14 1.34
7 0 -5 0.17 0.97
7 0 -6 -0.86 1.84
7 0 6 -2.75 1.87
7 0 6 -1.1 1.75
-7 0 6 -0.69 1.49
-7 0 -6 0.62 2.14
7 0 6 0.57 2.25
7 0 -6 1.04 2.23
7 0 -6 -0.39 1.74
-7 0 6 0.46 1.75
-7 0 -6 0.48 2.04
-7 0 -6 0.86 1.32
7 0 7 -1.49 1.9
-7 0 7 0.35 1.62
7 0 -7 -2.61 1.82
-7 0 7 1.43 1.89
-7 0 -7 -0.63 2.17
-7 0 -7 -0.29 1.3
7 0 -7 0.52 2.28
7 0 7 -0.57 2.29
7 0 -7 0.39 1.75
-7 0 -7 -0.5 2.29
7 0 7 -0.47 2.03
7 0 -8 0.44 1.72
-7 0 -8 -1.28 2.34
-7 0 -8 -4.13 2.39
7 0 -8 -1.05 2.52
7 0 8 -0.48 2
-7 0 -8 0.58 1.35
-7 0 8 0.49 2.05
7 0 8 1.14 1.72
-7 0 8 -0.36 1.67
7 0 8 1.17 2.33
7 0 8 0.66 2.35
7 0 9 0.98 2.18
-7 0 9 -0.78 1.9
7 0 -9 -1.36 2.02
7 0 -9 -0.53 2.22
-7 0 -9 -1.96 2.53
-7 0 9 0.37 1.53
-7 0 -9 -2.14 2.28
7 0 9 0.39 1.79
-7 0 -9 0.59 1.49
7 0 9 -1.2 2.56
-7 0 9 3.55 2.21
7 0 9 1.35 2.63
-7 0 10 -1.16 1.61
7 0 10 -0.79 1.93
7 0 10 1.23 2.51
7 0 10 -2.1 2.41
-7 0 -10 -1.2 1.51
-7 0 10 -0.4 1.66
7 0 10 0.5 2
-7 0 10 1.05 2.04
-7 0 -10 -0.56 2.42
-7 0 -10 -4.01 3.03
7 0 -10 1.08 2.2
-7 0 -11 -1.37 2.86
7 0 11 -2.88 2.72
7 0 -11 -1.65 2.29
7 0 11 -1.9 2.76
-7 0 11 -0.55 2.07
-7 0 -11 0.3 1.33
-7 0 11 -1.19 1.9
7 0 -11 -0.53 2.06
7 0 11 -1.03 2.1
-7 0 11 -0.4 1.69
7 0 12 1.49 2.38
-7 0 -12 -0.31 1.63
-7 0 12 1.24 1.88
-7 0 12 -1.12 2.27
7 0 12 -2.57 2.8
-7 0 -12 -0.69 2.69
7 0 -12 -0.56 2.16
7 0 12 -1.57 2.19
7 0 -12 -1.61 2.29
7 0 13 -0.77 2.81
-7 0 13 -1.27 2.03
-7 0 13 0.58 2.42
-7 0 -13 -0.94 1.61
7 0 13 0.54 2.19
7 0 -13 2.73 2.18
7 0 -13 -1.71 2.73
-7 0 -13 3.53 2.88
-7 0 -14 -2.17 2.57
-7 0 14 4.25 2.96
7 0 -14 -1.11 2.32
7 0 -14 0.58 2.83
-7 0 14 -0.87 2.16
7 0 14 -0.55 2.14
7 0 14 -0.79 2.63
7 0 15 -1.13 2.2
7 0 15 1.62 2.4
7 0 -15 -5.93 3.03
-7 0 15 -0.64 2.47
-7 0 -15 -1.47 2.7
7 0 -15 1.13 2.37
-7 0 15 -1.34 2.02
7 0 16 -0.83 2.87
-7 0 16 -0.46 2.05
7 0 16 -1.75 2.59
-7 0 -16 0.76 2.79
7 0 -16 -2.43 2.91
-7 0 16 2.6 3.01
7 0 -16 3.49 2.68
7 0 -17 4.17 3.13
7 0 17 1.71 3.14
-7 0 17 1.42 2.35
7 0 -17 -1.25 3.05
-7 0 -17 5.48 3.27
7 0 17 -0.59 2.37
-7 0 17 7.49 3.78
7 0 -18 3.66 2.97
7 0 -18 -0.64 3.24
-7 0 -18 -2.4 3.02
-7 0 18 0.49 2.05
7 0 18 1.22 2.55
7 0 18 -0.88 3.57
-7 0 -18 1.21 2.69
-7 0 18 -1.39 3.09
-7 0 -19 -1.64 3.01
-7 0 -19 3.13 3.1
7 0 19 -1.26 3.02
-7 0 19 2.91 3.03
-7 0 19 -2.03 2.44
7 0 -19 -2.64 3.1
7 0 -19 1.88 2.79
7 0 20 1.93 2.86
-7 0 -20 0.65 2.7
-7 0 20 -2.97 3.56
-7 0 20 0.52 2.35
-7 0 -20 1.68 2.99
7 0 -20 -1.29 2.63
7 0 -20 2.73 2.84
-7 0 -21 -2 2.59
-7 0 21 0.54 2.29
7 0 21 2.66 3.01
7 0 -21 2.66 2.77
-7 0 21 2.34 3.79
7 0 -21 0.7 3.23
-7 0 -21 -0.86 2.98
-7 0 22 -3.18 3.54
7 0 -22 0.72 3.12
-7 0 -22 -2.07 3.07
-7 0 22 -0.55 2.55
-7 0 -22 -0.88 3.24
7 0 -22 -2.06 3.29
7 0 22 -1.36 3.25
-7 0 23 0.56 2.56
-7 0 -23 -3.64 3.71
-7 0 -23 0.71 2.88
7 0 23 -2.81 3.47
7 0 -23 -1.42 3.34
-7 0 23 -1.67 3.86
7 0 -24 -0.73 3.2
7 0 24 0.72 2.78
-7 0 -24 0.73 2.9
-7 0 24 3.41 3.47
7 0 25 1.46 2.91
-7 0 -25 2.86 3.28
-7 0 25 -0.87 3.38
-7 0 -25 4.51 3.06
7 0 -25 -2.28 2.94
7 0 26 0.76 3.16
-7 0 -26 0.98 3.03
-7 0 26 -2.67 3.95
7 0 -26 -3.14 2.88
-7 0 -26 0.77 2.84
-7 0 -27 3.02 3.58
-7 0 -27 -0.8 3.4
7 0 27 0.77 3.07
-7 0 27 -2.06 3.17
-7 0 27 -0.93 3.71
7 0 -27 -0.8 2.77
-7 0 28 -0.7 3.06
-7 0 28 1.9 3.78
7 0 -28 -0.83 2.67
-7 0 -28 -3.29 3.51
-7 0 -28 1.03 3.78
-7 0 29 -0.97 4.14
-7 0 -29 1.06 3.4
-7 0 -29 0.85 2.92
7 0 -29 1.73 3.07
-7 0 29 0.72 3.26
7 0 -30 3.58 3.47
-7 0 30 -0.74 3.2
-7 0 -30 1.74 3
-7 0 -30 -1.09 3.61
7 0 -31 -1.83 3.55
-7 0 31 0.74 3.3
-7 0 -31 6.66 4.3
7 0 -32 2.85 3.78
-7 0 32 -1.5 3.59
-7 0 -32 -1.14 4.4
7 0 -33 -1.97 3.82
-7 0 33 -3.07 3.74
-7 0 -33 2.32 4.5
-7 0 34 0.78 3.65
7 0 -34 4.02 4.19
-7 0 -34 -4.74 4.59
-7 0 -35 1.21 4.44
7 0 -35 -2.08 3.35
-7 0 35 -6.28 4.58
7 0 -36 -2.15 3.83
-7 0 36 -0.8 3.9
-7 0 -36 -2.47 4.25
-7 0 -37 1.26 4.61
7 0 -37 3.3 3.78
-7 0 37 -4.85 3.67
-7 0 38 -1.64 3.49
7 0 -38 3.41 4.29
-7 0 -38 1.28 4.26
7 0 -39 -1.16 4.5
-7 0 -39 -7.82 5.45
8 0 0 1727.62 136.25
8 0 0 2056.88 137.13
-8 0 0 1808.47 135.6
8 0 -1 742.28 57.9
-8 0 -1 732.11 57.07
8 0 1 851.92 58.8
-8 0 1 727.37 57.1
8 0 -1 832.66 58.63
8 0 1 751.33 57.92
8 0 2 71.42 7.41
8 0 -2 47.91 6.86
8 0 2 87.71 8.4
-8 0 2 58.39 6.41
-8 0 -2 57.37 6.25
8 0 -2 88.77 8.15
8 0 -3 318.17 26.8
-8 0 -3 343.37 26.16
8 0 -3 354.82 27.45
-8 0 3 294.81 26.07
8 0 3 308.69 26.78
-8 0 -3 372.09 27.22
8 0 3 408.15 28.32
8 0 -4 227.26 21.07
8 0 4 284.31 21.66
-8 0 4 237.31 20.6
-8 0 -4 260.15 20.5
8 0 4 301.05 22.47
-8 0 -4 267.15 21.48
-8 0 5 69.15 7.79
-8 0 -5 83.09 8.38
-8 0 5 71.06 7.34
8 0 5 95.05 9.14
8 0 5 75.56 8.11
8 0 -5 58.46 7.5
-8 0 -5 70.47 6.91
8 0 -6 81.17 8.66
-8 0 -6 79.01 7.06
8 0 -6 61.03 7.61
8 0 6 84.97 9.01
-8 0 -6 91.49 8.57
-8 0 6 77.4 8.08
-8 0 6 55.81 7.09
8 0 6 70.97 7.94
8 0 7 137.93 13.56
8 0 -7 147.3 13.01
-8 0 7 137.43 12.89
-8 0 7 140.62 12.36
8 0 -7 159.33 13.69
8 0 7 135.47 12.89
-8 0 -7 120.5 11.7
-8 0 -7 170.55 13.56
8 0 8 365.87 30.76
-8 0 -8 376.46 31
8 0 8 429.89 31.92
-8 0 -8 356.86 29.69
8 0 -8 353.59 30.61
8 0 -8 428.69 31.63
8 0 8 405.2 32.3
-8 0 8 387.9 30.28
-8 0 -8 432.92 32.27
-8 0 8 392.37 31.01
-8 0 9 329.83 26.77
-8 0 9 325.65 26.2
-8 0 9 311.83 26
8 0 9 315.09 27.76
-8 0 -9 298.45 25.43
8 0 -9 340.3 27.19
-8 0 -9 317.41 26.83
8 0 9 374.72 27.87
8 0 9 352.8 26.94
8 0 -9 315.08 26.51
-8 0 -9 398.48 28.42
-8 0 10 654.04 51.23
-8 0 -10 757.91 53.37
8 0 10 720.16 52.01
-8 0 10 613.52 50.97
8 0 10 681 53.12
-8 0 -10 658.24 51.97
-8 0 -10 630.15 50.48
-8 0 10 684.26 51.95
8 0 10 703.27 52.65
8 0 -10 725.86 52.4
-8 0 11 46.97 6.2
8 0 11 46.41 7.1
8 0 11 46.15 6.29
-8 0 -11 40.97 6.64
8 0 -11 43.88 6.16
8 0 11 60.92 7.59
-8 0 -11 31 5.93
-8 0 -11 37.06 4.79
8 0 -11 49.44 6.77
-8 0 11 48.47 5.67
8 0 -12 333.1 28.32
-8 0 -12 321.62 28.28
-8 0 12 343.44 28.27
8 0 12 341.51 29.43
-8 0 -12 402.71 29.72
-8 0 12 342.75 27.66
8 0 12 353.32 28.95
8 0 12 350.17 28.21
8 0 -12 338.51 28.28
8 0 13 176.68 16.12
8 0 13 177.53 17.3
8 0 -13 181.68 16.28
8 0 -13 175.55 16.31
-8 0 -13 155.34 16.18
-8 0 -13 190.67 17.48
-8 0 13 178.38 15.6
-8 0 13 189.35 16.5
8 0 13 207.91 17.31
8 0 -14 99.91 9.88
8 0 -14 67.76 9.2
8 0 14 80.92 10.36
-8 0 14 86.98 9.59
8 0 14 110.69 10.78
-8 0 -14 112.25 11.17
-8 0 14 73.89 8.6
8 0 14 93 9.51
8 0 15 128.8 12.37
8 0 15 127.99 13.64
-8 0 15 105.84 11.45
8 0 -15 128.63 12.45
8 0 -15 120.63 12.52
-8 0 -15 121.88 13.2
8 0 15 151.97 13.61
-8 0 15 138.7 12.87
-8 0 -16 19.12 5.19
8 0 -16 32.08 5.3
8 0 -16 15.45 4.4
-8 0 16 26.67 5.14
8 0 16 15.67 4.37
-8 0 16 25.21 4.3
8 0 16 18.32 5.38
8 0 16 19.35 5.06
-8 0 -17 248.88 22.33
8 0 -17 260.77 21.57
8 0 -17 234.18 21.44
-8 0 17 239.19 20.68
-8 0 17 239.89 21.56
8 0 17 274.83 21.68
8 0 17 233.54 22.57
8 0 18 182.04 17.4
8 0 18 168.5 15.7
-8 0 18 162.65 15
-8 0 -18 154.74 16.4
8 0 -18 157.64 15.57
-8 0 18 166.65 16.01
8 0 -18 196.51 16.4
8 0 -19 226.07 19.9
8 0 -19 230.87 20.12
-8 0 19 225.73 20.23
-8 0 19 196.25 19.02
-8 0 -19 254.63 21.4
8 0 19 236.33 20
8 0 19 221.29 21.32
-8 0 20 1009.02 82.68
8 0 -20 1129.26 83.66
8 0 20 1086 83.45
-8 0 20 1087.4 83.94
-8 0 -20 1174.73 85.01
8 0 -20 1153.71 83.88
-8 0 21 302.15 24.61
8 0 21 320.88 25.4
-8 0 -21 295.8 26.28
8 0 -21 275.62 24.93
-8 0 21 267.02 25.18
8 0 -21 303.39 25.4
-8 0 -22 35.21 6.72
-8 0 22 37.92 5.65
8 0 -22 27.33 5.56
-8 0 22 38.62 6.75
8 0 22 20.64 4.88
8 0 -22 34.18 6
8 0 23 13.89 3.94
-8 0 -23 11.65 4.65
8 0 -23 17.18 4.63
-8 0 23 10.88 4.16
-8 0 23 5.55 3.31
8 0 -23 16.74 4.62
8 0 -24 64.61 9.25
-8 0 24 72.18 8.76
8 0 24 81.86 9.61
-8 0 24 87.77 10.45
-8 0 -24 84.49 10.75
8 0 -24 91.62 10.08
8 0 -25 24.8 5.48
8 0 -25 37.5 6.6
8 0 25 26.75 5.66
-8 0 25 47.93 7.24
-8 0 -25 38.55 6.87
-8 0 26 0.9 3.41
8 0 -26 2.47 3.44
-8 0 -26 4.14 4.12
8 0 -26 1.68 4.1
-8 0 -27 9.54 4.54
-8 0 27 9.2 4.27
8 0 -27 0.85 3.23
8 0 -27 6.01 4.2
8 0 -28 39.42 6.89
8 0 -28 36.85 6.98
-8 0 -28 47.61 7.97
-8 0 28 33.7 7.14
-8 0 -29 70.63 9.91
8 0 -29 67.08 9.66
8 0 -29 76.93 9.79
-8 0 29 63.24 8.72
-8 0 -30 -2.25 4.25
-8 0 30 2.33 3.31
8 0 -30 -2.74 4.45
8 0 -30 3.69 3.48
8 0 -31 26.68 6.58
-8 0 31 47.51 7.07
-8 0 -31 40.37 7.88
-8 0 -32 32.92 7.27
-8 0 32 26.64 6.06
8 0 -32 31.49 6.5
-8 0 33 171.59 16.85
8 0 -33 167.68 17.54
-8 0 -33 165.42 18.34
8 0 -34 58.1 9.3
-8 0 -34 65.94 10.21
-8 0 34 58.99 8.69
-8 0 35 35.05 6.62
-8 0 -35 31.07 7.42
8 0 -35 49.3 7.93
-8 0 -36 15.19 5.99
8 0 -36 16.37 5.38
-8 0 36 21.02 5.49
8 0 -37 9.01 4.61
-8 0 37 1.7 3.64
-8 0 -37 11.58 5.5
9 0 0 0.54 2.1
-9 0 0 -0.38 1.79
9 0 0 -0.62 2.63
-9 0 1 -0.38 1.81
-9 0 -1 0.75 1.85
9 0 1 -0.63 2.61
9 0 1 -0.54 2.37
9 0 -1 -1.62 2.09
9 0 2 -0.55 2.28
-9 0 -2 -0.37 1.71
9 0 2 0.63 2.58
9 0 -2 3.06 2.67
9 0 -2 0.54 2.35
-9 0 2 -0.79 1.79
-9 0 -3 3.28 1.89
9 0 3 0.65 2.72
9 0 3 1.1 2.25
9 0 -3 1.08 2.16
-9 0 3 0.41 1.73
9 0 4 0.56 2.04
9 0 4 -2.67 3.25
9 0 -4 0.55 2.17
-9 0 4 1.26 1.83
-9 0 -4 1.09 2.09
9 0 5 2.26 2.71
9 0 5 0.68 3.36
-9 0 5 -1.27 2.07
-9 0 -5 1.07 1.74
9 0 -5 2.2 2.13
9 0 -6 -0.55 2.2
-9 0 -6 -1.78 1.82
-9 0 6 1.31 2.24
9 0 6 2.87 2.75
9 0 6 4.85 3.2
-9 0 7 -0.9 2.01
9 0 -7 -1.12 2.05
-9 0 7 3.55 2.78
9 0 7 -1.42 2.89
9 0 7 -1.16 2.54
-9 0 -7 3.21 1.93
9 0 8 2.95 2.47
-9 0 -8 3.93 2.04
9 0 8 5.83 3.23
9 0 -8 -0.57 2.31
9 0 8 0.72 3.06
9 0 -8 -0.68 2.95
-9 0 8 0.93 2.19
-9 0 8 1.19 2.31
-9 0 9 0.94 2.1
9 0 -9 0.57 2.34
-9 0 9 2 2.55
-9 0 -9 -0.71 1.88
9 0 9 4.25 3.46
9 0 9 -0.6 2.27
9 0 -9 2.73 2.85
-9 0 9 -1.81 2.52
9 0 9 1.47 2.85
9 0 10 -1.73 2.99
-9 0 10 0.97 2.15
9 0 -10 -1.37 3.06
-9 0 10 0.62 2.81
-9 0 -10 0.83 3.38
9 0 10 1.21 2.41
-9 0 10 2.53 2.33
9 0 10 2.28 3.38
-9 0 11 1.98 2.41
-9 0 11 -3.13 2.61
9 0 -11 0.69 2.82
-9 0 11 3.08 2.7
9 0 11 0.89 3.25
9 0 11 -1.54 3.42
9 0 11 0.62 2.52
-9 0 -11 -1.68 2.88
9 0 -12 -0.68 2.71
-9 0 12 4.51 2.92
9 0 12 3.92 3.49
-9 0 12 -3.66 2.59
-9 0 -12 -3.4 3.21
9 0 12 2.72 3.33
9 0 12 -1.26 3.11
9 0 -12 -2.78 3.33
9 0 13 -2.8 3.21
-9 0 13 4.64 3.07
9 0 -13 -2.11 3.19
9 0 13 -1.28 2.9
9 0 13 -5.61 3.9
-9 0 -13 -0.86 3.25
-9 0 13 -2.12 2.45
9 0 -13 -0.68 2.65
-9 0 14 -1.08 2.41
9 0 14 0.96 3.07
9 0 14 -1.94 2.57
9 0 -14 2.85 2.9
-9 0 -14 -2.63 3.4
9 0 14 -1.63 3.69
-9 0 14 -1.34 2.99
9 0 -14 -2.08 2.89
9 0 15 -0.98 3.38
9 0 15 -1.32 2.82
9 0 -15 0.7 2.93
-9 0 15 -1.11 2.47
-9 0 15 3.47 3.02
9 0 -15 0.72 3.45
9 0 15 -6.65 4.05
9 0 -16 1.46 2.91
-9 0 16 9.33 4.23
9 0 16 -4.26 4.08
-9 0 -16 -3.64 4.44
-9 0 16 -2.25 2.5
9 0 16 2.03 2.82
9 0 -16 2.14 3.23
9 0 16 1 3.2
9 0 -17 2.16 3.01
-9 0 -17 -0.93 3.8
-9 0 17 1.16 2.52
9 0 17 -1.02 3.14
9 0 17 -0.87 3.61
9 0 17 -1.37 3.04
-9 0 17 6.55 3.6
-9 0 -18 -3.77 3.76
9 0 18 -2.1 3.06
9 0 18 1.04 3.08
-9 0 18 -5.35 2.81
9 0 -18 -0.73 2.7
9 0 -18 -6.04 4.15
-9 0 18 -2.27 3.31
9 0 18 -3.51 3.83
9 0 19 -3.19 3.78
-9 0 19 1.21 2.58
-9 0 19 2.31 3.13
9 0 19 -2.84 2.76
-9 0 -19 2.88 3.3
9 0 -19 -2.24 2.97
9 0 -19 -2.3 2.97
9 0 19 0.89 3.18
9 0 20 -2.73 3.61
9 0 20 0.73 2.66
-9 0 20 -1.56 3.33
9 0 20 -1.08 3.47
9 0 -20 0.76 2.44
-9 0 -20 -0.97 3.46
-9 0 20 0.62 2.59
9 0 -20 0.78 3.54
9 0 -21 -4.77 4.47
-9 0 21 1.62 3.06
-9 0 -21 -1.98 3.84
-9 0 21 -2.56 2.85
9 0 -21 -1.56 2.77
9 0 21 1.47 2.54
9 0 -22 -1.59 3.25
9 0 22 -2.26 2.84
9 0 -22 -5.67 4.56
-9 0 -22 -4.04 4.12
-9 0 22 0.65 2.46
-9 0 22 -1.65 3.51
-9 0 23 -0.85 3.31
9 0 -23 0.81 3.07
9 0 -23 -4.12 4.08
-9 0 -23 1.03 3.42
-9 0 23 -2.01 2.91
9 0 23 0.76 2.8
-9 0 -24 -4.18 3.6
-9 0 24 -3.47 3.46
-9 0 24 0.68 2.79
9 0 -24 -2.51 3.33
9 0 -24 -1.68 4.48
9 0 -25 1.7 3.12
-9 0 25 -2.09 2.91
-9 0 25 -2.65 3.42
-9 0 -25 -1.07 3.57
-9 0 26 -1.84 3.76
9 0 -26 -1.75 3.39
9 0 -26 -3.5 4.98
-9 0 -26 -2.19 3.89
-9 0 27 2.81 3.81
9 0 -27 -8.94 5.62
9 0 -27 0.9 3.29
-9 0 -27 6.67 4.94
9 0 -28 3.69 3.57
-9 0 -28 7.99 4.76
9 0 -29 -3.76 3.74
-9 0 -29 -1.16 3.87
9 0 -29 -4.64 4.6
-9 0 30 2.46 3.72
9 0 -30 0.97 3.84
-9 0 -30 -3.55 4.7
9 0 -31 0.99 3.95
-9 0 -31 1.2 4
-9 0 31 -0.84 3.86
-9 0 -32 -2.45 4.36
-9 0 32 -2.55 4.07
9 0 -32 3.07 3.86
9 0 -33 -3.12 3.58
-9 0 33 5.18 4.54
-9 0 -33 1.25 4
-9 0 -34 -1.27 4.06
-9 0 34 6.06 4.49
9 0 -34 -4.29 4.04
-9 0 35 -2.64 4.07
9 0 -35 1.1 4.17
-9 0 -35 -3.86 4.86
-10 0 0 18.9 3.54
10 0 0 28.84 5.45
10 0 0 21.71 4.34
-10 0 -1 15.51 3.09
10 0 -1 11.64 4.3
10 0 -1 9.69 3.7
10 0 1 9.67 4.54
10 0 1 6.66 3.33
-10 0 1 11.73 3.05
10 0 2 52.28 7
10 0 -2 68.46 7.87
-10 0 2 49.5 6.15
10 0 2 59.65 8.07
10 0 -2 65.33 7.44
-10 0 -2 41.69 5.84
10 0 3 129.27 12.53
10 0 -3 110.91 11.4
10 0 3 112.55 11.45
-10 0 3 141.56 11.2
-10 0 -3 94.9 10.23
-10 0 -4 45.27 5.11
10 0 4 35.78 5.78
-10 0 4 29.32 5.01
10 0 -4 32.9 5.83
10 0 5 249.38 21.38
-10 0 5 237.61 20.53
10 0 -5 224.99 21.08
-10 0 -5 250.19 20.27
10 0 5 309.04 22.82
10 0 -6 115.35 11.06
10 0 6 117.49 11.04
10 0 6 115.87 11.58
-10 0 -6 78.44 9.21
-10 0 6 116.33 10.28
10 0 7 350.92 30.22
-10 0 7 300.47 29.23
10 0 8 842.84 62.8
-10 0 8 703.95 60.03
10 0 8 822.33 61.16
10 0 -8 714.3 60.6
-10 0 9 435.36 36.52
10 0 -9 418.42 36.98
10 0 9 544.89 38.84
-10 0 9 464.21 36.86
10 0 9 474.96 38.95
-10 0 9 455.72 37.43
10 0 9 515.37 37.72
-10 0 10 33.15 5.33
-10 0 10 42.42 6.35
10 0 -10 40.24 6.72
10 0 10 62.38 7.95
-10 0 10 42.59 6.12
10 0 10 49.79 6.89
10 0 10 35.27 6.98
-10 0 11 4.9 3
10 0 11 17.46 4.88
10 0 11 8.69 3.51
-10 0 11 9.09 3.2
-10 0 11 5.46 3.32
10 0 11 9.72 4.09
10 0 -11 5.35 3.7
10 0 -12 56.49 8.39
10 0 12 63.1 9.21
-10 0 12 54.4 7.22
10 0 -12 47.03 7.9
10 0 12 72.13 8.21
-10 0 12 53.01 7.52
10 0 12 86.64 9.6
10 0 -13 99.36 11.14
-10 0 -13 89.62 11.46
10 0 13 97.6 10.38
-10 0 13 90.57 10.32
-10 0 13 82.03 9.56
10 0 13 94.63 11.2
10 0 -13 95.06 10.73
10 0 13 102.77 11.88
10 0 14 9.67 4.71
10 0 -14 23.42 5.18
10 0 -14 12.97 4.22
-10 0 -14 14.31 5.16
10 0 14 6.2 4.4
-10 0 14 12.15 4.06
-10 0 14 13.13 3.67
10 0 14 9.08 3.67
-10 0 15 50.06 6.97
10 0 15 49.77 8.71
10 0 15 58.98 7.8
-10 0 15 53.61 7.8
-10 0 -15 68.68 9.28
10 0 -15 61.86 8.21
10 0 -15 55.22 7.91
10 0 15 71.62 9.3
10 0 16 108.72 11.56
10 0 -16 81.39 10.38
-10 0 16 74.8 9.79
-10 0 16 72.37 8.98
10 0 16 94.03 10.01
-10 0 -16 92.1 11.57
10 0 16 75.94 10.93
10 0 -16 83.54 10.16
10 0 17 178.87 17.47
10 0 17 178.98 19
10 0 -17 179.14 17.5
-10 0 17 149.29 16.43
-10 0 17 205.49 17.95
-10 0 -17 193.68 18.98
10 0 17 230.67 19.3
10 0 -17 221.99 18.64
-10 0 -18 428.07 32.64
10 0 18 342.18 30.28
10 0 -18 366.08 30.82
10 0 -18 375.64 31.02
-10 0 18 358.61 30.66
10 0 18 319.72 31.74
-10 0 18 354.9 29.96
10 0 18 401.26 31.92
-10 0 19 82.92 10.05
10 0 19 76.15 9.54
10 0 -19 77.83 9.96
-10 0 -19 85.84 11.28
10 0 19 75.52 10.98
10 0 19 117.15 11.94
10 0 -19 72.4 9.68
-10 0 19 64.72 8.82
10 0 20 97.66 10.87
10 0 20 99.27 12.08
-10 0 -20 102.79 12.16
10 0 -20 75.93 10.33
10 0 20 95.43 12.43
-10 0 20 95.28 10.98
-10 0 20 78.75 9.98
10 0 -20 103.24 11.57
-10 0 -21 53.63 9.22
10 0 21 52.12 8.17
-10 0 21 83.42 9.52
-10 0 21 59.21 8
10 0 -21 61.48 8.85
10 0 -21 70.42 9.05
10 0 21 74.83 10.04
10 0 22 48.52 8.18
-10 0 -22 57.68 8.97
-10 0 22 53.12 7.27
10 0 -22 36.39 7.09
-10 0 22 43.08 7.35
10 0 -22 41.04 7.14
10 0 22 48 7.26
10 0 -23 22.86 6.01
-10 0 -23 44 7.9
10 0 -23 34.87 6.26
10 0 23 35.92 7.07
-10 0 23 24.58 5.95
-10 0 23 30.5 5.77
-10 0 24 100.16 12.58
-10 0 -24 141.85 15.32
10 0 24 139.67 15.22
-10 0 24 150.21 14.46
10 0 -24 121.88 14.23
10 0 -24 130.32 14.15
10 0 25 147.19 14.99
10 0 -25 112.44 13.12
10 0 -25 110.28 13.15
-10 0 25 96.17 11.88
-10 0 25 125.07 13.35
-10 0 -25 113.23 14.16
-10 0 26 57.43 8.67
-10 0 -26 56.35 9.58
10 0 -26 50.9 8.38
10 0 -26 53.49 8.52
-10 0 26 52.78 8
10 0 -27 55.29 8.52
-10 0 -27 59.54 9.75
10 0 -27 44.53 8.09
10 0 -28 55.32 8.79
10 0 -28 74.27 9.55
-10 0 -29 74.79 11.28
10 0 -29 85.5 10.99
10 0 -30 33.34 7.13
-10 0 -30 26.93 7.22
10 0 -31 24.86 6.37
-10 0 -31 32.29 7.6
10 0 -32 29.75 6.98
-10 0 32 25.89 6.56
-10 0 -33 85.15 12.31
10 0 -33 85.18 11.53
-11 0 0 0.48 2.09
11 0 0 -0.76 3.02
11 0 0 -0.66 2.43
11 0 1 -2.28 3.31
-11 0 1 0.48 2.07
11 0 1 -0.67 2.44
-11 0 -1 -2.34 2.35
11 0 -1 0.67 2.37
11 0 -1 -1.52 3.16
-11 0 2 -0.5 2.22
11 0 2 5.36 2.98
-11 0 -2 1.83 2.22
11 0 2 -1.53 3.47
11 0 -2 0.67 2.45
-11 0 -3 -1.81 1.97
-11 0 3 -0.51 2.06
11 0 3 -2.02 2.74
11 0 3 0.78 3.17
11 0 -3 0.67 2.31
11 0 4 0.79 3.05
-11 0 -4 -1.34 2.13
11 0 -4 0.67 2.39
-11 0 4 0.52 2.26
11 0 4 1.35 2.62
11 0 5 0.68 2.48
11 0 -5 -1.35 2.48
11 0 5 2.4 3.1
-11 0 5 -2.67 2.23
11 0 6 -1.37 2.79
11 0 6 1.63 3.4
-11 0 6 1.62 2.41
11 0 -6 1.36 2.78
-11 0 7 0.56 2.52
11 0 -7 0.68 2.66
11 0 7 0.99 2.79
11 0 7 2.07 2.75
11 0 7 3.28 3.58
11 0 8 0.69 2.54
11 0 -8 2.77 2.89
11 0 8 3.36 3.73
11 0 8 1 3.22
-11 0 8 -1.21 2.4
-11 0 8 0.56 2.45
-11 0 9 -1.83 2.48
11 0 9 2.04 3.85
11 0 9 2.11 2.66
11 0 9 0.86 3.31
-11 0 9 -1.73 2.71
11 0 -9 -0.7 2.92
11 0 10 -1.75 3.48
11 0 10 -2.14 2.7
-11 0 10 0.62 2.51
11 0 10 -1.04 3.33
-11 0 10 -1.17 2.33
11 0 11 -0.73 2.66
11 0 11 0.88 3.14
-11 0 11 2.24 3.11
-11 0 11 1.25 2.66
11 0 11 -1.06 3.64
11 0 12 -2.14 3.69
11 0 -12 -0.84 3.26
11 0 12 -4.52 3.85
11 0 -12 0.83 3.03
11 0 12 0.73 2.6
-11 0 12 -1.27 2.88
-11 0 12 1.5 2.91
11 0 -13 -1.67 2.96
11 0 -13 0.85 3.45
11 0 13 0.74 2.94
-11 0 13 0.64 2.42
11 0 13 -1.09 3.5
11 0 13 0.93 3.95
-11 0 13 -1.51 3.08
11 0 14 1.49 2.89
-11 0 14 -0.77 2.9
11 0 -14 0.83 2.78
-11 0 14 0.65 2.78
11 0 14 -2.81 3.99
11 0 14 -2.24 4.1
11 0 -14 -0.85 3.22
11 0 -15 4.31 3.59
11 0 15 3.43 3.8
-11 0 15 2 2.65
-11 0 -15 3.14 3.61
-11 0 15 3.09 3.08
11 0 -15 1.69 3.27
11 0 15 -4.55 3.57
11 0 15 -0.97 3.94
11 0 16 -1.54 2.83
11 0 -16 5.95 3.55
-11 0 -16 1.06 3.52
-11 0 16 -1.59 3.53
11 0 -16 -0.87 3.53
11 0 16 1.17 3.89
11 0 16 -2.93 3.79
-11 0 16 -0.67 2.88
11 0 17 1.19 3.96
-11 0 17 1.38 2.75
-11 0 17 -0.8 3.03
11 0 -17 3.5 3.48
-11 0 -17 5.35 4.26
11 0 -17 2.58 3.59
11 0 17 0.78 3.09
11 0 17 -0.99 4.22
11 0 18 1.21 4.01
11 0 -18 -0.88 3.42
11 0 18 1.01 4
11 0 18 -0.79 3.06
11 0 -18 1.73 3.36
-11 0 18 -0.82 3.44
-11 0 18 -0.71 3.02
-11 0 -18 -1.09 3.74
-11 0 19 0.83 3.7
11 0 19 -0.8 3.17
11 0 19 3.68 4.75
11 0 -19 0.88 3.32
-11 0 -19 -1.1 4.03
-11 0 19 -3.59 3.49
11 0 -19 -0.89 3.88
11 0 19 -1.02 3.95
11 0 -20 -4.51 4.24
11 0 20 -4.02 3.5
11 0 -20 -0.89 3.17
11 0 20 -2.08 4.53
-11 0 -20 -1.12 3.72
11 0 20 3.73 4.43
-11 0 20 2.52 3.81
-11 0 20 0.74 2.86
11 0 -21 -0.9 3.31
11 0 -21 -1.82 4.21
-11 0 21 2.59 3.68
11 0 21 2.53 4.05
11 0 21 4.21 4.29
-11 0 21 2.24 3.57
-11 0 -21 -1.13 3.9
11 0 -22 -4.61 4.71
-11 0 -22 -1.15 3.81
-11 0 22 -3.49 4.03
11 0 22 -2.15 4.17
-11 0 22 -0.77 2.97
11 0 -22 1.84 3.47
-11 0 -23 5.85 4.41
11 0 23 -1.09 4.64
-11 0 23 0.78 3.75
-11 0 23 -5.39 4.15
11 0 -23 -3.73 4.31
11 0 -23 6.52 4.14
-11 0 24 2.72 3.95
-11 0 24 -0.79 3.38
11 0 24 2.21 4.16
11 0 -24 2.84 3.77
-11 0 -24 1.18 3.49
11 0 -24 -4.73 4.76
-11 0 -25 -2.42 4.69
-11 0 25 1.62 3.52
-11 0 25 1.83 3.64
11 0 25 3.38 4.7
11 0 -25 -0.96 3.32
11 0 26 3.43 4.54
-11 0 26 0.82 3.56
-11 0 -26 1.23 4.36
11 0 -26 -1.97 3.82
11 0 27 -5.77 5.03
-11 0 -27 -3.72 4.13
-11 0 27 0.83 3.55
11 0 -27 -1 3.87
11 0 28 3.51 4.77
11 0 -28 1.02 3.39
-11 0 -28 1.26 3.88
-11 0 -29 7.61 4.65
11 0 29 -2.37 4.71
11 0 -29 -1.04 3.47
-11 0 -30 1.28 4.71
11 0 30 6 5.12
11 0 -30 -2.13 3.9
-12 0 0 149.98 15.35
12 0 0 167.5 16.5
-12 0 1 92.96 10.1
12 0 1 92.94 11.28
12 0 -1 89.55 10.9
-12 0 -1 101.78 10.3
12 0 2 37.53 7.09
12 0 2 30.6 5.78
12 0 -2 13.87 4.57
-12 0 2 17.67 4.07
12 0 -3 58.57 7.48
12 0 3 61.3 8.69
-12 0 3 35.75 5.91
12 0 3 45.45 7.11
12 0 -4 25.04 5.49
12 0 4 27.83 5.54
-12 0 4 32.13 5.25
12 0 5 41.93 6.35
12 0 -5 24.41 5.27
-12 0 5 29.61 5.31
12 0 5 36.3 7.16
12 0 -6 36.4 6.6
12 0 6 37.05 6.62
12 0 6 55.55 8.2
-12 0 6 45.88 6.33
12 0 -7 95.18 10.73
-12 0 7 83.36 9.96
-12 0 7 76.02 9.55
12 0 7 112.96 12.62
12 0 7 80.84 10.12
12 0 8 239.07 20.91
12 0 8 240.95 22.62
-12 0 8 186.21 19.65
12 0 -8 219.9 20.69
-12 0 8 237.27 20.44
12 0 9 116.68 12.88
12 0 -9 108.37 12.73
-12 0 9 132.98 12.76
12 0 9 132.35 14.96
-12 0 9 103.34 12.02
12 0 10 41.47 8.37
-12 0 10 36.83 6.31
12 0 10 34.19 6.79
-12 0 10 49 6.92
12 0 11 211.65 19.58
-12 0 11 184.27 18.81
12 0 11 200.68 21.38
-12 0 12 92.39 11.18
12 0 12 148.46 14.18
12 0 -12 106.95 12.7
12 0 12 107.96 13.75
12 0 12 107.98 12.08
12 0 13 56.33 9.45
-12 0 13 52.56 7.59
12 0 13 59.7 8.23
12 0 13 70.94 9.73
12 0 -13 61.53 8.83
12 0 -14 9.96 4.72
12 0 14 14.4 5.52
12 0 14 20.91 6.14
12 0 14 19.95 5.01
-12 0 14 9.2 4
-12 0 14 10.76 4.21
12 0 15 33.1 7.36
12 0 15 22.45 5.35
12 0 15 36.16 7.54
-12 0 15 21.69 5.03
12 0 -15 34.72 6.42
-12 0 15 29.19 6.1
12 0 -15 33.36 6.81
12 0 -16 22.4 5.86
-12 0 16 18.99 4.63
-12 0 16 24.36 5.57
12 0 -16 23.97 5.97
12 0 16 12.36 5.6
12 0 16 19.53 4.95
12 0 16 16.26 6.16
12 0 17 12.27 4.6
12 0 17 18.72 6.29
-12 0 17 16.46 4.39
12 0 17 6.34 5.02
12 0 -17 23.19 5.87
-12 0 17 12.69 4.57
12 0 -17 15.04 5.7
12 0 -18 45.58 7.76
12 0 18 27 7.49
12 0 -18 50.46 8.01
12 0 18 34.31 7.76
-12 0 18 50.51 7.33
12 0 18 48.22 7.38
-12 0 18 53.14 7.72
12 0 -19 15.3 5.44
-12 0 19 5.42 3.4
-12 0 -19 10.54 5.27
12 0 19 24.92 6.44
-12 0 19 18.13 5.38
12 0 19 9.14 4.72
12 0 -19 10.4 4.97
12 0 -20 56.41 8.6
-12 0 20 49.95 7.71
12 0 20 47.65 9.24
-12 0 20 64.7 8.84
12 0 20 65.75 9.57
-12 0 -20 50.86 9.25
12 0 -20 40.52 8.1
12 0 -21 16.43 5.72
12 0 21 16.1 6.1
-12 0 -21 11.95 6.15
12 0 21 23.26 6.44
-12 0 21 15.19 4.88
12 0 -21 24.27 6.12
-12 0 21 19.25 4.96
12 0 -22 54.74 9.01
-12 0 22 54.94 8.57
-12 0 -22 64.01 10.17
12 0 -22 64.72 9.56
12 0 22 63.05 10.01
-12 0 22 46.88 7.97
-12 0 -23 88.09 12.15
12 0 23 85.43 11.72
12 0 -23 64.55 10.71
-12 0 23 76.67 10.31
-12 0 23 83.25 10.38
-12 0 -24 17.31 6.75
12 0 -24 20.16 6.08
-12 0 24 20.48 5.78
-12 0 24 30.61 6.31
-12 0 -25 39.01 8.74
-12 0 25 19.89 5.72
12 0 -25 34.64 7.25
12 0 25 42.23 8.05
-12 0 -26 35.62 8.18
12 0 -26 30.03 7.25
12 0 26 42.68 8.31
-12 0 26 36.71 6.96
-12 0 27 22.16 5.69
13 0 0 -0.79 2.89
13 0 1 2.71 3.5
13 0 1 3.93 3.28
-13 0 1 2.35 2.82
13 0 -1 -2.37 3.44
13 0 -2 -2.37 3.07
13 0 2 4.51 4.09
-13 0 2 -3.02 2.63
13 0 2 -0.79 3.36
13 0 -3 -2.39 3
13 0 3 -0.91 3.6
-13 0 3 3.67 3.17
13 0 3 0.79 3.29
-13 0 4 -0.63 2.79
13 0 4 -0.79 3.36
13 0 -4 2.39 3.55
13 0 4 -2.74 3.98
13 0 5 3.18 3.67
13 0 -5 0.8 3.1
13 0 5 -1.83 3.82
-13 0 5 0.63 2.82
13 0 6 2.79 3.7
13 0 6 8.02 4.67
13 0 -6 4.03 3.2
-13 0 6 -2.79 3.34
13 0 6 -0.79 3.38
-13 0 6 3.24 3.1
13 0 7 2.83 3.56
-13 0 7 3.93 3.2
-13 0 7 1.41 3.26
13 0 -7 1.62 3.07
13 0 7 1.16 3.41
13 0 7 3.19 3.62
13 0 8 0.95 3.67
13 0 8 1.61 3.27
-13 0 8 -0.71 3.16
13 0 -8 -0.82 3.09
13 0 8 4.69 4.66
-13 0 8 -2 2.84
13 0 9 -1.92 3.92
-13 0 9 1.44 3.13
13 0 9 2.38 3.96
13 0 9 0.8 3.12
13 0 10 3.93 4.19
13 0 10 -0.81 3.47
-13 0 10 1.46 3.31
13 0 10 2.4 4.27
13 0 11 -1.63 3.16
-13 0 11 -0.74 3.27
13 0 11 0.99 3.4
13 0 11 -1.22 3.91
13 0 -12 0.97 3.66
13 0 12 2.48 4.27
-13 0 12 2.99 3.39
13 0 12 -3.29 3.19
13 0 12 1.01 3.7
13 0 13 2.53 3.73
13 0 13 0.83 3.2
13 0 13 -2.06 4.29
-13 0 13 0.75 3
13 0 -13 1.95 3.68
13 0 14 -5.04 3.17
13 0 14 -1.28 4.1
13 0 14 -3.11 4.22
13 0 -14 -0.97 3.88
-13 0 14 -0.77 3.42
13 0 15 6.52 4.78
13 0 15 1.68 3.27
13 0 -15 6.88 4.1
13 0 15 -4.24 4.52
-13 0 15 0.78 3.17
13 0 16 2.66 4.26
-13 0 16 0.8 3.39
13 0 -16 -3.96 3.73
-13 0 17 1.61 3.27
13 0 17 -1.09 4.12
13 0 -17 -1.99 4.15
13 0 17 -1.34 3.96
-13 0 18 4.56 4.14
13 0 -18 -4.04 4.49
13 0 18 -1.1 4.6
-13 0 18 -2.46 3.1
13 0 18 -1.36 4.54
13 0 -18 -2 3.88
-13 0 19 0.92 3.83
-13 0 19 -0.83 3.45
13 0 19 -2.26 4.71
13 0 -19 1.01 3.59
13 0 19 -1.38 3.88
13 0 20 1.4 4.31
-13 0 20 -0.92 3.77
13 0 20 -4.55 5.16
13 0 -20 3.05 4.15
-13 0 20 -0.85 3.69
13 0 -21 4.11 4.09
-13 0 21 3.43 3.58
-13 0 21 0.93 3.41
13 0 21 1.41 3.98
13 0 21 -2.35 4.78
13 0 22 -2.37 4.47
13 0 -22 -3.12 3.33
-13 0 22 1.88 3.65
13 0 22 -1.43 4.41
-13 0 22 -1.75 3.31
-13 0 23 -1.89 3.86
14 0 0 59.34 8.52
14 0 1 23.66 5.82
14 0 -1 22.93 5.65
14 0 2 4.22 3.4
14 0 -2 13.64 4.46
14 0 2 8.72 4.83
14 0 -3 9.4 4.28
14 0 3 14.58 5.36
14 0 3 5.07 3.96
14 0 -4 45.39 7.47
-14 0 4 34.62 6.51
14 0 4 32.9 6.74
14 0 5 110.99 12.51
14 0 -5 92.99 12.16
-14 0 5 117.31 12.19
14 0 5 128.59 14.71
-14 0 5 89.45 11.29
-14 0 6 84.33 9.25
14 0 -6 58.95 8.82
14 0 6 52.49 8.72
-14 0 6 55.38 8.42
14 0 6 63.56 10.46
14 0 7 29.72 7.08
14 0 7 48.13 8.08
14 0 7 44.3 7.07
-14 0 7 22.69 5.54
14 0 -7 18.34 5.36
-14 0 7 23.14 5.23
14 0 8 16.21 5.89
14 0 8 20.13 6.16
14 0 8 1.7 3.98
-14 0 8 5.34 3.57
14 0 9 26.54 6.19
-14 0 9 35.62 6.29
14 0 9 32.88 7.43
14 0 9 43.81 8.26
14 0 10 67.67 9.31
14 0 10 83.95 10.95
-14 0 10 67.95 9.1
14 0 10 66.73 10.78
14 0 11 20.71 5.37
-14 0 11 9.51 4.18
14 0 11 9.35 5.04
14 0 11 9.06 4.81
14 0 -11 7.23 4.56
14 0 -12 8.3 4.57
14 0 12 7.43 4.58
14 0 12 5.26 5.27
14 0 12 16.41 4.85
-14 0 12 11.19 4.32
14 0 13 10.71 5.5
14 0 13 18.13 5.65
14 0 -13 -2.08 3.88
-14 0 13 13.03 4.4
14 0 13 15.7 4.95
14 0 14 21.81 6.43
-14 0 14 8.21 4.17
14 0 14 14.86 6.43
14 0 -14 13.51 5.55
14 0 -15 31.42 6.97
14 0 15 25.23 6.74
14 0 15 20.65 6.74
-14 0 15 26.04 5.85
14 0 16 8.41 5.8
14 0 16 23.46 6.66
-14 0 16 11.86 4.63
14 0 -16 14.72 5.62
14 0 17 58.16 10.57
15 0 0 -2.71 3.32
15 0 1 0.9 3.2
15 0 -1 0.9 3.22
-15 0 2 1.54 3.14
15 0 2 -0.9 3.3
15 0 -2 -0.91 3.42
-15 0 3 1.55 3.66
15 0 3 -3.59 3.57
15 0 -3 -1.82 3.53
15 0 4 -3.58 3.29
-15 0 4 2.35 3.11
15 0 4 -1.28 4.24
15 0 4 2.07 4.42
15 0 -4 -3.66 3.45
-15 0 5 1.58 3.65
15 0 5 2.69 3.39
15 0 5 1.28 4.12
15 0 5 1.04 4.13
15 0 -5 1.84 3.37
-15 0 6 -0.8 3.47
15 0 6 -2.69 3.56
15 0 6 2.6 4.47
15 0 -6 -1.85 3.59
15 0 7 -0.9 3.4
15 0 7 -1.31 4.65
-15 0 7 -0.8 3.5
15 0 8 -0.9 3.2
15 0 8 5.29 4.56
15 0 9 2.72 3.69
15 0 10 -1.81 3.94
0 1 0 0.18 1.33
0 -1 0 -0.18 1.11
0 1 0 0.45 2.67
0 1 0 0.36 1.99
0 1 0 2.2 2.11
0 1 0 -1.24 1.38
0 -1 0 0.18 1.16
0 1 0 -0.6 1.19
0 -1 0 -1.51 2.73
0 -1 0 1.1 1.2
0 1 -1 115.48 9.8
0 1 1 74.79 10.63
0 1 -1 82.03 10.72
0 1 -1 97.54 10.5
0 1 1 111.07 10.63
0 1 -1 124.37 9.82
0 1 -1 130.39 10.89
0 1 1 127.93 9.74
0 1 1 122.65 9.84
0 1 -1 130.69 9.8
0 1 -1 109.64 9.6
0 -1 1 81.17 10.81
0 -1 1 121.87 9.87
0 -1 1 134.12 9.83
0 1 -1 129.73 9.46
0 1 -1 127.01 9.92
0 -1 -1 120.17 9.86
0 1 1 121.81 9.25
0 -1 -1 96.73 11.04
0 -1 1 126.84 9.22
0 1 -1 129.12 9.31
0 -1 1 133.1 9.96
0 1 1 140.56 11.06
0 -1 -1 122.07 11.03
0 -1 -1 122.39 9.92
0 -1 -1 134.73 9.95
0 1 -2 2.17 1.98
0 1 -2 6.25 1.1
0 1 -2 6.46 2.81
0 1 -2 11.68 1.72
0 -1 2 8.27 1.21
0 1 -2 9.24 1.75
0 1 2 5.22 2.54
0 -1 -2 2.48 1.95
0 -1 2 6.55 2.95
0 -1 -2 6.94 1.69
0 -1 -2 6.04 2.85
0 1 2 13.81 1.78
0 -1 -2 3.09 1.79
0 1 -2 8.61 3.19
0 1 -2 5.13 1.2
0 1 -2 12.18 1.92
0 -1 2 10.14 1.83
0 1 -2 8.17 1.67
0 1 2 9.34 1.86
0 1 2 10.02 3.06
0 -1 -2 6.3 0.92
0 -1 -2 9.33 1.81
0 -1 2 10.62 1.85
0 1 -2 5.24 1.6
0 1 2 4.99 3.19
0 1 2 7.4 0.94
0 1 3 1711.58 176.9
0 1 3 2375.32 176.07
0 -1 3 1713.26 177.07
0 1 3 2451.32 175.48
0 1 -3 2345.39 176.05
0 1 -3 2485.11 175.84
0 1 -3 2235.5 176.94
0 1 3 2190.75 176.92
0 1 3 2711.98 177.45
0 -1 -3 1669.27 177.04
0 -1 -3 2618.9 176.17
0 -1 3 2480.06 175.73
0 1 -3 2773.18 176.41
0 -1 -3 2516.62 175.44
0 -1 -3 2436.88 175.49
0 1 3 2720.28 176.17
0 -1 -3 2614.29 177.64
0 -1 3 2342.12 176.11
0 1 -3 2409.08 175.92
0 1 -3 2646.14 176.16
0 -1 -3 2336.65 176.07
0 1 3 2370.83 175.9
0 1 -3 1665.62 176.89
0 -1 3 2592.1 176.16
0 1 4 4.35 1.1
0 1 -4 9.35 1.85
0 -1 -4 6.18 1.12
0 1 -4 8.48 1.84
0 1 4 8.48 1.62
0 -1 -4 12.44 1.98
0 1 -4 8.47 1.56
0 1 -4 7.17 2.66
0 1 4 4.21 2.65
0 -1 -4 5.59 2.44
0 -1 4 9.55 1.51
0 1 4 4.95 3.04
0 1 -4 6.35 3.36
0 -1 -4 6.54 3.2
0 1 -4 4.17 1.57
0 -1 4 12.22 2.05
0 -1 4 7.26 1.67
0 1 4 6.94 1.19
0 1 4 10.72 1.96
0 -1 4 6.99 1.75
0 1 4 9.72 2.23
0 -1 4 7.06 3.02
0 -1 -4 9.59 1.86
0 -1 4 8.07 1.79
0 -1 4 6.03 0.82
0 1 -4 8.45 1.58
0 1 -4 8.71 1.83
0 1 4 4.74 1.67
0 -1 5 212.92 15.94
0 1 -5 198.53 15.68
0 1 5 204.19 15.46
0 1 5 222.82 16.07
0 1 -5 173.04 16.55
0 1 5 201.1 16.79
0 -1 -5 215.99 17.31
0 -1 -5 194.86 15.43
0 -1 5 235.45 16.07
0 -1 5 211.31 15.21
0 1 -5 224.52 16.24
0 -1 5 204.46 15.74
0 -1 5 155.72 16.97
0 1 -5 203.76 15.88
0 1 -5 206.57 15.88
0 1 -5 130.42 16.62
0 -1 -5 226.83 16.15
0 -1 -5 193.95 15.87
0 1 5 219.64 15.46
0 -1 -5 153.12 17.06
0 1 5 204.98 15.86
0 1 5 149.35 16.74
0 -1 5 199.14 15.87
0 -1 -5 216.69 15.95
0 1 -5 207.22 15.94
0 1 5 199.19 15.68
0 -1 5 232.85 16.14
0 1 -5 215.17 16.16
0 1 5 220.56 16.47
0 1 -6 1.61 1.4
0 -1 -6 3.32 1.64
0 -1 -6 2.22 1.09
0 1 6 1.14 1.69
0 -1 -6 1.28 1.34
0 1 -6 0.45 2.86
0 1 -6 0.83 1.25
0 1 -6 2.24 1.52
0 -1 6 1.74 1.49
0 1 6 1.66 0.77
0 -1 -6 0.91 2.17
0 1 -6 1.41 2.13
0 1 6 0.35 2.09
0 -1 -6 1.81 1.38
0 -1 -6 1.58 0.91
0 1 6 1.76 1.33
0 1 -6 2.11 1.44
0 1 6 -0.45 2.66
0 -1 6 2.52 2.61
0 1 -6 2.24 1.44
0 -1 6 1.56 1.34
0 -1 -6 0.92 0.74
0 -1 6 1.13 0.67
0 -1 -6 1 2.82
0 1 -6 0.15 1.12
0 1 -6 1.91 0.84
0 1 6 1.08 0.93
0 -1 6 1.83 1.19
0 1 6 1.76 1.31
0 -1 6 3.17 1.65
0 1 6 4.43 1.82
0 -1 6 1.57 1.25
0 1 6 1.16 0.71
0 -1 7 1826.16 126.1
0 1 -7 1712.76 127.07
0 -1 7 1741.74 126.9
0 -1 7 1771.31 126.94
0 -1 -7 1715.21 127.13
0 -1 7 1697.97 126.81
0 1 -7 1579.42 127.58
0 -1 7 1170.28 127.75
0 1 7 1690.77 126.29
0 -1 7 1739.87 126.29
0 -1 -7 1670.93 126.43
0 1 -7 1713 126.33
0 1 7 1984.44 126.31
0 -1 -7 1740.36 126.54
0 1 7 1190.81 127.57
0 1 7 1763.34 126.56
0 1 -7 1802.14 127.01
0 1 7 1723.45 126.59
0 -1 7 2096.82 127.09
0 -1 -7 1216.8 127.74
0 1 7 1832.18 126.68
0 1 7 1850.28 127.53
0 1 7 1837.54 127.2
0 1 -7 1863.4 127.37
0 1 7 1571.51 127.54
0 1 -7 1820.53 127.19
0 1 7 1688.24 126.74
0 1 -7 1676.59 126.74
0 -1 -7 1704.98 126.81
0 1 -7 1201.86 127.56
0 -1 -7 1697.35 126.77
0 -1 7 1898.39 127.14
0 1 -7 1685.58 126.58
0 -1 -7 1789.26 126.59
0 -1 8 -0.32 0.73
0 -1 8 0.2 1.39
0 -1 8 -0.07 0.56
0 1 -8 2.35 1.23
0 1 -8 0.45 1.3
0 1 -8 0.45 0.89
0 1 8 -0.45 2.44
0 1 8 -0.35 1.17
0 -1 -8 -0.79 1.49
0 1 8 -0.68 1.89
0 1 -8 -0.34 2.01
0 -1 8 0.23 1.27
0 -1 -8 0.5 2.73
0 -1 -8 0.27 1.47
0 1 8 -0.63 1.45
0 1 -8 -0.45 2.38
0 1 8 -0.11 0.82
0 -1 8 0.43 1.21
0 1 8 0.73 1.13
0 1 8 0.25 1.35
0 1 -8 -0.15 1.07
0 -1 -8 0.55 1.17
0 -1 -8 0.44 0.99
0 -1 -8 0.18 1.31
0 1 -8 0.49 1.33
0 -1 -8 0.86 0.93
0 -1 8 0.21 1.04
0 -1 8 -0.5 1.2
0 1 8 0.39 0.6
0 -1 -8 0.48 0.96
0 1 8 1.08 0.96
0 1 8 0.14 0.93
0 1 -8 -0.35 1.18
0 1 -8 1.16 1.54
0 1 -9 498.71 38.91
0 1 -9 509.09 38.85
0 -1 9 496.93 38.79
0 -1 9 556.28 39.54
0 1 9 536.03 39.13
0 -1 -9 590.94 38.72
0 1 -9 537.92 39.89
0 1 9 502.69 39.06
0 -1 -9 504.58 39.02
0 -1 -9 564.23 39.83
0 1 -9 509.09 39.67
0 1 9 491.13 38.83
0 1 9 564.63 38.62
0 -1 9 654.74 39.55
0 1 -9 534.47 39.58
0 1 9 602.14 38.99
0 -1 -9 492.41 39.09
0 1 9 554.68 39.77
0 -1 9 529.71 39.37
0 -1 -9 536.75 39.23
0 -1 9 559.63 39.67
0 -1 9 526.43 39.44
0 -1 -9 494.74 39.04
0 -1 -9 596.69 39.35
0 1 -9 497.01 39.94
0 1 -9 361.51 39.95
0 1 -9 481.16 39.04
0 1 9 328.09 39.8
0 -1 -9 567.35 39.8
0 1 9 484.97 38.89
0 1 9 564.05 40.1
0 1 -9 528.64 39.44
0 1 9 493.83 39.91
0 -1 10 0.43 0.94
0 -1 10 2.26 1.49
0 1 -10 2.14 1.39
0 1 -10 -0.31 1.49
0 -1 -10 7.45 1.65
0 1 10 5.19 2.31
0 -1 -10 7.8 1.96
0 1 -10 0.33 1.98
0 -1 -10 0.38 0.76
0 -1 10 -0.4 1.3
0 1 -10 0.25 1.18
0 1 10 1.91 0.94
0 1 -10 1.05 1.09
0 -1 -10 1.44 1.27
0 -1 10 0.7 1.28
0 1 10 3.6 1.47
0 1 10 2.64 2.77
0 -1 -10 6.32 1.51
0 1 -10 -1.32 2.72
0 1 10 4.44 1.1
0 1 10 4.45 1.48
0 -1 -10 8.06 1.66
0 1 10 11.64 2.66
0 1 -10 0.87 0.93
0 -1 10 -0.25 1.2
0 -1 10 -0.55 1.56
0 1 10 7.17 1.63
0 -1 -10 21.37 2.93
0 1 10 7.23 1.78
0 1 10 3.13 1.95
0 -1 -10 4.91 1.86
0 1 -10 0.14 1.03
0 1 10 3.65 0.96
0 1 -10 0.67 1.4
0 -1 11 21.92 2.71
0 1 11 27.6 3.87
0 1 -11 16.33 3.21
0 1 11 16.39 3.11
0 1 -11 22.14 2.94
0 1 -11 16.95 2.34
0 1 11 26.74 2.94
0 1 11 9.65 3.44
0 -1 11 18.08 2.33
0 1 11 18.9 2.4
0 1 -11 18.93 2.85
0 1 11 20.04 3.23
0 1 11 20.31 2.49
0 1 -11 19.47 3
0 1 -11 19.65 3.2
0 1 11 24.3 2.33
0 1 -11 18.39 2.3
0 -1 11 17.68 2.77
0 -1 11 22.96 2.95
0 -1 -11 28.37 2.97
0 1 11 23.98 2.21
0 1 -11 9.24 3.22
0 1 11 26.51 2.29
0 -1 11 16.3 2.81
0 1 -11 17.53 2.46
0 -1 11 21.72 2.86
0 -1 -11 17.71 2.59
0 -1 -11 27.38 2.82
0 1 11 20.74 1.98
0 -1 -11 23.03 2.13
0 -1 -11 17.63 2.73
0 -1 -11 32.35 3.76
0 1 11 18.37 2.54
0 -1 -11 22.46 3.25
0 1 12 0.71 0.95
0 -1 -12 2.25 1.62
0 1 -12 1.77 1.08
0 -1 12 0.39 1.32
0 1 -12 -0.58 1.42
0 1 -12 0.98 2.05
0 1 -12 0.38 1.56
0 1 -12 0.37 1.47
0 1 -12 1.39 1.12
0 -1 -12 3.52 1.38
0 1 -12 1.36 1.41
0 1 -12 0.43 0.88
0 -1 12 0.87 1.46
0 1 -12 -0.88 2.35
0 1 12 2.93 1.33
0 1 12 0.79 2.02
0 -1 -12 1.67 1.22
0 -1 -12 1.77 1.67
0 -1 12 0.81 1.4
0 -1 12 2.11 0.97
0 1 12 1.26 1.7
0 -1 12 1.27 1.34
0 1 12 3.38 1.04
0 1 12 1.73 1.24
0 1 12 1.13 1.1
0 -1 -12 0.98 1.38
0 1 12 0.9 0.66
0 1 12 1.64 1
0 -1 -12 0.89 0.77
0 1 12 1.96 0.88
0 -1 12 1.52 1.54
0 -1 -13 27.72 2.64
0 1 -13 19.81 2.5
0 -1 -13 17.27 2.8
0 1 -13 17.34 2.93
0 1 13 21.17 2.06
0 1 13 24.33 2.9
0 -1 -13 20.61 2.83
0 1 13 20.08 2.62
0 1 13 17.5 3.13
0 1 13 18.05 3.46
0 1 -13 22.09 3.37
0 -1 13 18.54 3.23
0 1 -13 24.28 3.19
0 1 13 24.01 2.62
0 -1 13 23.72 3.17
0 1 13 23.39 2.29
0 1 -13 23.38 3.4
0 1 -13 15.83 2.51
0 1 -13 25.87 3.67
0 -1 13 21.51 3.02
0 -1 -13 25.3 2.84
0 1 13 22.81 2.51
0 1 13 22.46 2.47
0 -1 13 17.84 3.02
0 -1 -13 21.78 2.16
0 -1 -13 19.72 3.23
0 1 -13 17.52 2.29
0 -1 13 21.97 2.62
0 -1 -13 22.76 3.46
0 1 14 1.37 1.35
0 -1 -14 4.18 2.08
0 -1 14 9.13 2.29
0 1 14 1.82 1.33
0 1 14 12.06 3.07
0 1 -14 3.52 2.4
0 -1 -14 3.11 1.38
0 1 -14 4.51 1.85
0 1 -14 11.16 2.5
0 1 14 5.86 1.31
0 1 14 1.81 2.23
0 1 -14 9.17 1.99
0 -1 -14 2.04 0.96
0 -1 -14 3.14 1.5
0 1 -14 3.76 2.46
0 -1 14 8.66 2.48
0 -1 -14 8.26 1.91
0 -1 14 13.02 2.09
0 1 14 2.25 1.41
0 -1 14 6.52 2.19
0 -1 -14 6.48 2.06
0 1 14 4.18 1.64
0 1 -14 2.81 1.46
0 1 -14 5.4 2.04
0 -1 -14 2.83 2.32
0 1 -14 8.9 2.37
0 1 14 1.21 1.27
0 -1 14 5.5 2.21
0 1 -15 6675.54 480.41
0 -1 -15 7005.59 481.19
0 -1 15 6518.26 480.55
0 1 15 6668.45 480.02
0 -1 -15 6679.36 480.66
0 -1 -15 7026.6 479.63
0 1 -15 7164.82 480.66
0 1 -15 6318.14 479.87
0 -1 -15 6837.28 480.16
0 1 15 7003.71 480.31
0 -1 15 6098.75 479.83
0 1 15 7043.88 479.78
0 -1 -15 6648.98 480.53
0 -1 -15 7051.21 479.32
0 1 15 7016.15 479.48
0 1 -15 6427.96 481.2
0 1 15 6639.02 481.34
0 -1 15 6600.69 480.58
0 1 15 6510.68 479.42
0 1 -15 5903.71 479.36
0 -1 15 6473.41 480.3
0 1 -15 6509.68 480.46
0 1 -15 6328.89 481.07
0 -1 15 6299.36 480.18
0 1 -15 5769.75 479.56
0 -1 -16 5.63 2.36
0 1 16 1.21 1.32
0 1 16 3.55 2.67
0 -1 16 3.69 1.96
0 -1 16 2.17 1.94
0 -1 16 1.22 1.37
0 1 16 4.18 1.99
0 -1 -16 1.35 1.71
0 1 16 -0.78 1.46
0 1 -16 3.52 1.87
0 -1 -16 4.54 2.65
0 -1 -16 -0.72 1.93
0 1 -16 1.37 1.65
0 -1 -16 1.53 1.23
0 -1 -16 2.17 1.03
0 1 -16 3.58 1.57
0 1 16 3.31 1.25
0 1 -16 -1.45 1.88
0 1 -16 1.5 2.13
0 -1 16 2.17 1.99
0 1 17 492.46 35.94
0 -1 -17 511.59 37.23
0 1 -17 449.93 35.71
0 1 -17 475.06 37.14
0 1 17 498.47 36.24
0 1 -17 489.94 36.25
0 1 -17 489.36 36.37
0 1 17 481.78 37.37
0 -1 17 451.75 36.04
0 -1 17 441.97 35.76
0 -1 -17 431.26 36.31
0 1 -17 437.55 37
0 1 17 489.8 35.28
0 -1 -17 460.79 36.41
0 -1 -17 486.33 35.33
0 -1 -18 0.89 1.24
0 1 -18 2.41 1.88
0 1 18 3.82 1.61
0 -1 18 5.57 2.31
0 1 -18 6.73 1.77
0 1 18 1.17 3.04
0 1 18 8.41 2.29
0 -1 18 2.81 1.56
0 1 -18 1.62 1.54
0 -1 -18 5.86 1.88
0 1 -18 3.32 2.04
0 -1 -18 4.08 2.61
0 1 -18 0.55 2.09
0 1 -19 1906.06 136.7
0 1 -19 1777.69 136.19
0 1 19 1970.36 136.77
0 -1 19 1817.8 136.3
0 -1 -19 1915.63 137.71
0 -1 -19 1879.1 137.16
0 1 19 1934.98 136.47
0 1 -19 1804.85 137.72
0 1 19 1846.77 138.14
0 1 -19 1788.02 136.71
0 1 -19 1817.31 137.79
0 -1 -19 1831.48 135.65
0 1 20 2.7 2.94
0 1 -20 0.39 1.83
0 -1 -20 1.69 2.35
0 1 20 3.37 1.86
0 1 -20 3.01 2.46
0 -1 -20 1.43 2.12
0 1 -20 2.59 1.96
0 1 -20 0.6 2.21
0 -1 20 5.38 1.77
0 -1 -21 177.03 16.03
0 1 -21 173.96 15.1
0 1 21 171.48 16.5
0 1 -21 166.92 16.07
0 -1 -21 180.55 15.66
0 1 -21 183.67 16.32
0 1 21 195.71 15.33
0 -1 21 176.71 14.79
0 1 -21 182.17 15.1
0 1 -22 1.26 1.91
0 -1 -22 4.94 2.8
0 1 -22 3.97 2.36
0 1 22 -0.75 2.92
0 1 22 5.38 1.95
0 -1 22 1.41 1.34
0 -1 -22 0.53 2.07
0 1 -22 -1.95 2.77
0 1 -22 -0.79 1.98
0 1 23 1.6 2.94
0 1 -23 1.22 1.94
0 1 -23 2.77 2.83
0 -1 -23 6.45 3.1
0 -1 23 3.72 1.8
0 1 23 8.67 2.63
0 -1 -23 1.69 2.62
0 1 24 4.22 3.98
0 1 -24 7.5 2.59
0 1 24 0.45 2.21
0 -1 -24 2.02 2.47
0 -1 24 -2.73 2.17
0 -1 -24 -3.56 2.84
0 1 -24 -3.62 3.02
0 -1 -25 471.06 36.1
0 -1 -25 424.12 36.19
0 1 25 477.52 35.41
0 -1 25 432.81 34.81
0 1 -25 413.6 36.38
0 1 -25 497.94 35.23
0 1 25 403.74 36.87
0 1 26 5.92 3.09
0 1 -26 6.15 2.97
0 -1 -26 2.92 3.13
0 -1 26 6.45 3.03
0 1 -26 3.93 3.51
0 -1 -26 -0.65 2.74
0 1 27 1513.52 135.77
0 -1 -27 1747.58 135.46
0 1 27 1927.28 134.43
0 -1 27 1825.4 133.88
0 1 -27 1817.02 135.85
0 -1 -27 1748.03 134.96
0 1 -27 1943.77 134.04
0 1 28 13.34 4.06
0 -1 28 26.18 4.38
0 1 -28 18.94 4.18
0 -1 -28 25.59 4.74
0 -1 -28 9.44 4.86
0 1 -28 23.78 4.93
0 1 28 30.64 7.29
0 1 29 1657.91 148.88
0 1 29 2091.31 147.45
0 -1 29 2011.97 146.92
0 -1 -29 1975.53 148.2
0 1 -29 2146.49 147
0 -1 -29 1899.55 148.46
0 1 -29 1944.44 148.9
0 1 30 1.16 3.33
0 1 -30 8.2 3.38
0 -1 -30 12.65 4.65
0 1 30 7.39 5.41
0 1 -30 10.02 4.54
0 -1 30 5.09 3.3
0 -1 -30 6.93 4.19
0 1 -31 3.97 2.61
0 1 31 2.39 2.96
0 -1 31 1.58 3.01
0 -1 -31 4.36 3.47
0 1 -31 -2.83 5.03
0 1 -32 -0.5 2.19
0 -1 -32 0.9 3.1
0 1 32 -3.12 3.42
0 -1 -32 -2.49 3.54
0 1 -32 -0.97 3.68
0 -1 -33 111.57 12.91
0 1 -33 126.18 11.3
0 1 33 113.98 11.71
0 -1 33 110.61 11.22
0 1 -33 103.58 13.03
0 1 34 1.99 2.9
0 1 -34 2.08 2.5
0 1 -34 2.07 3.69
0 -1 -34 0.96 3.19
0 -1 34 1.77 2.72
0 1 -34 0.66 2.88
0 -1 35 95.42 9.57
0 1 -35 73.68 10.7
0 1 -35 77.42 8.64
0 -1 -35 88.25 10.9
0 1 35 86.28 9.72
0 1 -35 72.26 9.18
0 1 -36 1.62 2.41
0 1 -36 1.37 3.23
0 1 36 -0.71 3.63
0 1 -36 -2.2 4.98
0 -1 36 0.63 3.33
0 -1 -36 -2.02 3.7
0 1 -37 28.23 6.63
0 1 37 39.46 6.46
0 -1 37 32.61 5.68
0 1 -37 49.85 6
0 -1 -37 24.88 6.51
0 1 -38 3.92 3.11
0 -1 -38 1.06 3.41
0 1 38 -0.75 3.66
0 1 -38 -5.8 5.36
0 -1 38 -0.67 3.32
0 1 -39 265.16 25.37
0 -1 39 240.4 22.51
0 1 39 253.22 23.2
0 -1 -39 216.19 24.02
0 1 -39 322.51 22.75
0 1 -40 9.8 3.45
0 1 -40 7.31 4.85
0 -1 40 2.86 3.66
0 -1 -40 12.31 5.63
0 1 40 -4.79 4.98
0 1 -41 203.53 21.6
0 -1 -41 183.05 20.81
0 1 -41 262.12 19.2
0 1 41 183.33 19.39
0 -1 41 208.42 19.38
0 1 -42 2.39 3.14
0 1 42 -1.7 4.83
0 1 -42 -3.85 5.94
0 -1 -42 5.85 5.1
0 1 -42 3.5 4.86
0 1 42 5 6.62
0 1 -43 10.93 3.82
-1 1 0 1068.89 74.38
1 1 0 1038.08 74.3
1 1 0 2036.2 75.46
-1 -1 0 826.2 73.64
-1 -1 0 685.79 74.78
-1 1 0 849.1 73.83
1 -1 0 959.66 74.2
1 -1 0 641.02 73.93
1 -1 0 927.65 75.42
-1 -1 0 2012.07 77.43
-1 1 0 1049.21 75.44
-1 1 0 863.76 73.68
1 1 0 977.04 75.44
1 1 0 892.99 74.08
-1 1 0 2283.56 75.27
1 -1 0 1994.84 75.26
1 -1 0 1435.12 77.43
1 1 0 959.04 73.78
-1 1 0 960.53 74.21
1 1 0 976.97 74.51
1 1 0 909.81 73.67
-1 1 0 975.28 74.45
1 -1 0 978.47 73.89
1 1 0 956.14 74.71
-1 -1 0 1918.27 75.44
1 1 0 2774.71 76.28
1 1 0 960.9 74.04
-1 -1 1 1233.24 106.83
-1 -1 1 1395.07 107
1 1 1 1442.96 107.24
1 1 -1 1406.77 106.95
1 1 1 1376.29 108.2
1 -1 1 2124.73 110.33
-1 -1 -1 1373.1 106.89
-1 1 1 1325.05 106.59
-1 -1 -1 2728.28 108.25
-1 1 1 1459.43 108.2
-1 1 -1 1233.85 106.55
-1 1 -1 1399.22 106.77
-1 -1 1 2668.8 109.92
-1 -1 -1 2820.31 110.14
1 1 -1 644.02 106.48
1 1 -1 1434.76 106.61
1 1 1 3789.56 108.96
1 1 -1 2521.4 107.95
-1 1 -1 1480.21 108.21
1 -1 1 1375.18 108.28
1 -1 1 1479.25 107.29
1 -1 -1 2625.12 107.96
1 -1 -1 1865.97 109.85
1 1 1 1405.44 106.92
1 1 1 1223.95 106.41
1 1 1 1242.61 107.66
-1 -1 -1 1314.76 106.5
1 1 -1 1357.92 107.45
1 -1 -1 1217.7 106.8
-1 1 1 2864.55 107.81
1 1 -1 1399.51 107
-1 1 -1 1665.85 107.36
1 -1 1 2722.24 108.01
1 -1 1 1486.52 106.83
-1 1 -1 1509.17 107.2
-1 1 1 1417.49 107.05
1 1 1 1293.99 106.76
-1 1 -1 1226.48 106.76
1 -1 -1 1346.08 106.6
1 -1 1 1483.81 107.23
-1 1 -1 1432.22 107.07
-1 1 1 1387 107.49
1 -1 -1 1367.05 108.32
1 1 -1 3560.8 108.79
1 1 -1 1413.35 106.92
-1 1 -1 3070.13 107.94
1 1 1 2617.48 108.04
-1 -1 -1 1061.49 107.62
-1 -1 1 1156.48 107.5
-1 1 1 1204.73 106.65
-1 -1 1 2454.58 108.04
1 1 1 1512.13 107.55
1 1 -2 3083.67 132.53
-1 -1 2 1718.58 131.45
1 -1 -2 3160.99 132.42
1 1 2 1761.34 131.91
-1 -1 -2 1681.34 131.39
-1 1 2 1625.39 131.28
-1 1 -2 1523.03 131.32
1 1 2 1525.24 131.23
-1 1 -2 3445.21 132.3
-1 -1 2 2983.58 132.55
-1 -1 2 3245.82 134.51
1 -1 2 1881.3 131.49
1 1 -2 4086.96 133.15
1 1 2 1382.49 131.02
-1 1 -2 1648.61 131.27
1 -1 -2 1722.07 132.97
-1 1 -2 1721.22 132.65
1 1 2 1640.38 132.71
-1 1 2 1821.57 132.28
1 1 2 1868.52 132.13
1 -1 -2 2316.45 134.44
1 -1 2 2313.69 134.41
1 1 -2 1890.88 131.31
-1 -1 2 1640.71 131.5
-1 -1 -2 1696.78 131.09
1 1 -2 1721.96 131.95
-1 1 -2 2077.33 131.93
1 -1 2 3297.14 132.55
-1 1 -2 1582.27 131.44
-1 -1 2 1288.74 131.06
1 -1 2 1841.01 131.79
-1 -1 -2 1713.92 132.27
1 1 -2 1666.01 131.35
1 -1 2 796.45 131.02
-1 -1 -2 3118.52 132.6
-1 1 2 3453.62 132.32
-1 1 2 1646.82 131.48
-1 1 -2 1867.82 131.83
1 1 2 3258.85 132.6
1 1 2 4342.44 133.3
1 -1 -2 1453.32 131.07
1 1 -2 1847.57 131.56
1 -1 2 1741.56 131.64
-1 -1 -2 3345.58 134.56
-1 -1 2 1498.48 131.19
1 1 3 648.42 46.05
-1 1 -3 553.8 45.48
-1 -1 -3 1054.3 48.14
-1 -1 3 619.29 45.52
1 1 -3 508.78 45.11
1 1 3 463.81 45.11
-1 -1 3 1040.99 46.5
1 -1 -3 414.62 44.96
1 1 -3 1058.99 46.41
-1 -1 -3 561.04 45.27
-1 1 -3 449.05 44.99
-1 -1 3 507.16 44.93
-1 -1 -3 560.47 46.77
1 1 3 1393.67 47.05
-1 1 -3 593.93 45.67
-1 -1 -3 477.69 45.95
1 -1 -3 575.45 46.91
1 1 3 548.13 46.55
-1 1 -3 577.26 46.46
1 1 3 587.9 45.87
1 -1 3 1025.59 46.2
1 -1 3 763.18 48.09
-1 -1 -3 628.06 45.07
-1 -1 -3 599.09 46.19
1 -1 3 624.97 45.72
-1 -1 3 940.43 47.76
1 -1 -3 734.5 47.98
1 -1 3 627.62 45.5
1 1 3 491.6 44.91
1 1 -3 696.57 45.37
1 1 -3 1477.18 47.15
-1 1 3 631.06 46.32
-1 -1 3 583.74 45.24
1 -1 -3 1058.62 46.33
-1 1 3 523.7 45.4
1 -1 3 549.73 45.63
-1 -1 -3 994.36 46.44
1 -1 3 548.93 45.28
1 1 -3 627.81 45.93
1 -1 3 550.52 45.01
-1 1 -3 1067.93 46.03
-1 1 3 1200.69 46.2
-1 -1 3 548.86 45.19
1 1 3 1110.16 46.45
-1 1 -3 498.63 44.86
-1 1 -3 639.36 45.86
1 1 -3 661.77 45.5
-1 1 3 571.66 45.24
1 1 4 102.17 7.89
1 -1 -4 71.89 7.01
-1 1 -4 71.91 7.21
1 -1 4 79.67 7.28
-1 1 -4 96.41 7.52
1 -1 4 76.82 6.77
1 1 4 57.24 7.14
1 -1 -4 64.08 6.51
-1 -1 -4 167.9 9.61
1 1 4 66.5 6.6
1 -1 4 91.97 7.24
-1 -1 -4 84.94 6.79
-1 -1 -4 87.02 8.59
-1 -1 4 70.69 6.89
-1 1 -4 87.54 8.23
-1 1 -4 81.04 7.51
1 -1 -4 100.57 9.41
-1 1 -4 72.56 6.54
1 1 -4 90.29 7.09
1 1 4 62.91 6.78
-1 -1 -4 66.46 6.62
-1 1 -4 73.55 7.52
-1 1 4 72.89 6.95
1 1 -4 71.75 6.72
1 -1 4 108.56 9.44
1 -1 4 90.36 7.43
-1 -1 -4 93.95 7.71
1 1 4 70.48 8.07
-1 1 4 175.44 7.82
1 -1 -4 146.17 7.92
1 1 -4 177.92 8.27
-1 1 4 85.2 8.19
1 1 4 148.84 7.94
-1 -1 4 137.36 9.16
-1 -1 4 141.73 8.01
1 1 -4 97.83 7.25
1 -1 4 148.14 7.91
-1 1 -4 60.68 6.54
-1 -1 -4 137.96 7.94
-1 -1 4 76.54 6.82
-1 1 -4 152.79 7.66
1 1 4 182.93 8.35
1 1 -4 143.18 7.89
-1 1 4 84.48 7.03
-1 -1 4 79.61 7.11
1 1 5 258.84 19.71
-1 1 -5 226.45 19.31
-1 -1 5 209.64 18.66
1 1 -5 204.1 18.6
1 1 5 212.42 18.86
-1 -1 -5 195.93 18.62
1 -1 5 215.28 18.62
-1 1 5 387.04 19.69
-1 1 5 226.49 18.93
1 -1 -5 349.07 19.66
-1 -1 5 348.87 21.01
-1 -1 -5 334.81 20.84
1 1 -5 495.25 20.26
-1 1 5 233.38 20.19
1 1 5 216.76 20.27
-1 -1 -5 221.4 20.55
1 1 5 207.06 19.47
-1 -1 5 316.22 19.58
-1 -1 -5 310.09 19.57
1 -1 5 268.16 21.41
1 1 5 230.29 19.03
-1 -1 5 240.06 19.13
1 -1 -5 204.85 18.51
1 1 5 351.91 19.61
1 -1 5 180.13 18.58
1 1 5 421.07 19.8
-1 -1 -5 242.48 18.76
-1 1 5 230.56 18.92
-1 1 -5 227.99 19.47
-1 1 5 257.84 19.08
1 -1 5 235.62 19.33
1 1 -5 376.69 19.74
-1 1 -5 274.8 19.46
1 -1 5 277.57 19.43
1 -1 5 330.23 19.54
1 1 5 214.96 18.64
1 1 -5 260.34 19.12
1 -1 -5 245.84 20.98
-1 1 -5 387.06 19.43
-1 1 5 389.82 19.43
1 -1 -5 208.05 19.08
1 1 -5 252.99 19.42
1 -1 5 254.8 19.35
-1 1 -5 225.25 18.54
1 1 -5 275.03 19.21
-1 1 -5 230.05 19.41
-1 -1 5 244.98 19.06
-1 -1 -5 234.4 19.51
-1 1 6 261.71 13.85
-1 1 6 150.57 12.99
-1 -1 6 153.91 12.9
1 1 6 287.76 14.12
-1 -1 6 166.85 13.35
1 -1 6 201.52 13.65
1 -1 -6 172.19 15.11
-1 1 -6 168.72 13.78
1 1 6 153.2 13.87
1 -1 6 184.2 13.63
-1 1 6 259.28 13.62
-1 -1 -6 246.08 15.16
1 1 6 141.46 12.56
-1 -1 -6 183.82 14.95
1 1 6 160.92 13.86
1 1 -6 147.93 12.84
-1 1 6 173.07 13.29
1 -1 6 168.48 13.67
1 -1 -6 153.62 12.87
-1 1 6 164.82 13.28
1 -1 6 188.57 15.39
-1 -1 -6 179.53 13.11
-1 1 -6 162.13 12.83
1 1 6 150.97 12.95
1 1 6 165.85 13.22
-1 -1 -6 185.01 13.89
-1 1 -6 155.89 13.67
-1 -1 6 228.87 15.01
-1 1 -6 166.24 13.77
1 -1 -6 214.23 13.66
-1 1 -6 232.56 13.48
1 -1 -6 147.61 13.45
-1 1 -6 173.37 13.62
1 1 -6 152.38 13.53
-1 -1 -6 174.64 13.86
-1 1 6 179.26 13.45
1 1 -6 180.28 13.47
1 1 -6 173.12 13.45
1 -1 6 131.71 12.7
1 1 -6 316.65 14.33
-1 -1 6 191.44 13.66
1 1 -6 259.32 13.92
-1 -1 -6 139.29 12.97
1 -1 6 165.99 13.63
1 -1 6 130.85 12.84
-1 -1 6 142.94 13.26
1 1 6 166.86 13.35
-1 -1 -6 196.62 13.73
1 1 7 0.52 1.79
-1 -1 -7 0.59 1.09
-1 -1 -7 3.76 1.86
1 1 7 2.89 1.46
-1 1 7 2.62 1.47
1 1 7 5.42 2.12
-1 -1 7 7.34 2.04
1 1 7 14.99 2.12
1 1 -7 15.94 2.18
-1 -1 -7 4.16 2.48
-1 -1 -7 12.65 3
-1 -1 7 10.61 2.65
1 -1 -7 0.54 1.13
1 -1 7 1.46 1.08
-1 1 -7 1.93 1.66
-1 -1 -7 4.91 1.82
-1 1 -7 17.49 1.78
1 -1 -7 6.17 3.08
1 -1 7 12.3 3.8
-1 -1 7 4.53 1.65
1 1 7 5.85 1.5
1 1 -7 4.91 1.77
-1 -1 7 2.8 1.05
1 1 7 5.22 3.47
-1 1 7 2.93 1.43
-1 -1 -7 9.08 1.98
-1 1 7 1.84 0.89
1 -1 7 3.62 1.76
1 -1 -7 2.9 1.1
1 -1 7 5.6 2.02
1 -1 -7 6.89 1.77
1 -1 7 7.57 1.85
1 1 7 3.72 1.29
-1 -1 7 1.71 1.03
-1 -1 -7 4.85 1.38
1 -1 7 0.36 0.77
1 -1 7 3.35 1.68
1 1 -7 11.36 2.02
-1 1 -7 7.27 2.09
-1 1 7 2.92 1.18
1 1 -7 5.78 1.63
-1 1 -7 4.98 1.09
1 1 -7 5.16 1.61
-1 1 7 12.67 1.93
-1 1 -7 11.2 1.81
1 1 -7 4.92 1.71
1 -1 7 4.95 1.75
-1 1 7 8.88 1.53
-1 1 -7 4.58 1.74
-1 1 7 2.75 1.75
-1 1 -7 2.35 1.58
-1 1 7 1.96 1.29
-1 -1 7 5.14 1.58
1 -1 -7 4.04 1.8
-1 -1 -8 53.5 5.02
1 -1 8 54.48 4.46
-1 -1 8 37.83 3.85
1 1 -8 68.67 4.77
-1 -1 -8 54.17 4.69
1 -1 -8 39.39 4.04
-1 1 8 67.55 4.68
1 1 8 71.33 4.77
-1 1 8 41.63 3.95
1 -1 -8 49.61 4.17
-1 -1 -8 52.01 5.93
1 -1 8 36.84 4.58
-1 -1 -8 50.64 5.46
-1 -1 8 39 3.57
-1 -1 8 46.38 4.51
-1 -1 8 48.7 4.09
-1 1 8 45.05 4.33
-1 1 8 36.2 3.91
-1 -1 8 42.1 5.27
-1 1 -8 45.49 4.01
1 -1 -8 34.37 5.78
1 -1 8 33.56 5.88
-1 -1 8 42.77 4.44
1 1 8 27.52 5.66
1 -1 -8 42.29 4.61
1 1 8 41.39 4.46
1 1 -8 38.24 5.77
1 -1 8 41.39 4.1
1 -1 -8 54.25 4.5
-1 1 -8 49.6 4.2
-1 1 -8 42.72 4.67
1 -1 8 53.01 4.96
-1 1 -8 45.82 5.02
1 1 -8 45.55 4.63
1 1 8 42.42 4.29
-1 -1 -8 39.78 4.2
-1 1 8 46.15 4.19
-1 -1 8 45.15 4.43
1 1 -8 39.82 4.67
-1 1 -8 56.65 4.52
1 -1 8 42.57 4.66
-1 1 8 66.43 4.45
-1 1 -8 41.92 4.69
1 1 -8 32.37 4.38
1 1 8 38.5 4.85
1 1 8 44.28 4.2
1 1 8 44.6 5.07
-1 -1 -8 53.9 5.21
1 -1 8 45.8 4.82
1 1 -8 48.18 4.53
1 1 8 41.01 3.95
-1 -1 -8 34.21 4.16
-1 1 -8 44.97 5.01
-1 1 8 44.03 4.88
-1 -1 -9 64.16 5.97
-1 -1 9 81.57 7.28
-1 -1 -9 74.34 6.53
-1 1 -9 68.11 6.3
-1 -1 -9 62.55 6.42
1 1 9 62.28 5.1
-1 -1 9 76.38 6.31
-1 -1 -9 53.65 5.84
1 -1 9 66.86 6.42
-1 1 -9 88.35 6.09
1 1 9 84.97 5.98
-1 -1 9 61.28 5.45
-1 -1 -9 63 7.09
1 1 -9 61.86 6.35
1 -1 -9 62.74 5.65
-1 1 9 65.82 6.06
-1 -1 -9 71.3 5.89
1 -1 9 45.65 7
-1 1 -9 65.03 5.55
1 1 9 41.27 7.17
1 1 -9 53.84 7.5
-1 1 -9 90.69 5.9
1 1 9 69.13 5.9
1 1 9 54.18 6.28
1 -1 9 56.7 5.54
-1 -1 -9 63.38 6.79
1 1 9 59.7 5.76
1 1 -9 116.66 6.42
1 -1 -9 60.7 5.77
-1 1 9 60.06 5.62
-1 -1 9 52.65 5.11
-1 1 -9 62.7 6.62
1 1 9 82.45 7.12
1 1 -9 78.39 6.19
1 -1 9 71.23 6.16
1 -1 9 71.69 6.43
1 -1 -9 67.66 7.76
-1 -1 -9 81.17 6.28
-1 1 9 57.63 5.41
-1 -1 9 69.8 6.24
-1 1 9 49.66 5.48
-1 1 -9 54.04 6.3
1 -1 -9 78.04 6.02
-1 1 9 92.56 6.19
-1 -1 9 63.13 5.57
-1 1 -9 45.37 5.96
1 -1 9 72.17 5.84
1 1 -9 65.86 6.27
-1 -1 9 64.62 6.08
1 -1 9 55.17 6.16
-1 -1 9 61.86 5.92
-1 1 9 66.37 6.74
1 1 -9 64.42 6.22
1 -1 -9 68.82 6.38
1 1 9 50.89 5.25
1 1 -10 237.33 20.88
1 1 10 261.18 21.35
-1 -1 10 248.04 19.95
1 1 -10 239.72 20.53
-1 -1 10 256.61 20.59
-1 -1 -10 278.34 21
-1 -1 -10 279.35 20.54
1 -1 10 271.02 20.95
-1 1 -10 285.37 21.27
-1 1 -10 333.48 20.28
-1 1 -10 255.36 20.69
-1 1 10 251.27 20.95
1 -1 10 308.56 20.37
1 1 -10 275.46 20.89
-1 -1 10 265.93 20.34
1 1 -10 258.62 20.65
-1 -1 -10 274.7 22.04
-1 -1 10 250.56 20.16
-1 1 10 267.7 20.51
-1 -1 -10 279.44 20.25
-1 1 -10 254.38 20.06
1 -1 -10 228.93 21.77
1 -1 10 224.16 21.74
1 1 10 180.71 21.36
1 1 -10 198.23 21.55
1 1 10 233.96 20.32
-1 -1 -10 281.32 21.43
1 1 10 274.35 21.16
1 -1 -10 299.09 21.19
1 1 10 273.49 20.59
-1 1 10 223.91 20.03
-1 -1 10 265.14 20.56
-1 -1 10 257.24 20.62
1 -1 -10 304.89 20.1
1 1 10 326.44 20.35
1 -1 10 229.39 20.14
1 -1 10 269.77 20.74
-1 1 -10 269.84 21.31
-1 1 10 242.57 19.92
1 1 -10 363.9 20.55
-1 -1 10 226.34 19.77
-1 1 10 305.68 20.39
1 -1 10 262.16 20.74
1 -1 -10 238.02 20.22
1 1 10 296.72 19.65
-1 -1 10 271.37 21.39
-1 1 -10 299.23 20.38
-1 -1 -10 248.77 21.21
1 -1 -10 276.5 20.3
-1 -1 -10 242.09 20.5
1 -1 10 278.38 20.97
1 1 10 229.6 19.71
-1 1 10 252.49 20.01
-1 1 -10 255.12 20.81
-1 -1 -10 260.65 20.58
-1 -1 11 168.9 14.57
-1 -1 11 167.49 14.13
1 1 11 192.63 15.69
1 1 -11 155.94 14.67
1 -1 11 191.54 15.13
-1 1 11 122.45 15.12
-1 -1 11 163.58 14.11
-1 1 11 188.87 14.31
1 -1 -11 200.25 14.16
-1 1 -11 179.43 14.92
1 1 11 204.99 14.47
-1 -1 -11 189.24 14.92
-1 -1 11 160.03 15.25
1 1 -11 210.35 14.45
1 1 11 119.55 15.49
-1 1 -11 193.4 14.46
-1 1 11 195.5 14.9
1 1 -11 181.21 15.19
1 -1 11 176.42 14.93
-1 -1 -11 170.5 13.66
-1 -1 -11 212.37 14.6
-1 1 -11 173.21 15.39
1 -1 11 150.71 15.82
-1 1 11 171.78 13.92
1 1 -11 115.36 15.35
1 1 11 192.69 15.5
1 -1 -11 180.65 14.59
1 -1 -11 220.66 15.48
1 -1 -11 223.49 14.57
1 1 11 197.66 14.78
-1 1 11 177.08 14.37
-1 -1 -11 177.96 14.75
1 -1 11 181.73 14.4
-1 -1 -11 181.73 15.54
-1 -1 -11 216.84 15.75
-1 -1 11 189.42 14.36
1 -1 -11 151.22 15.84
1 -1 -11 219.98 14.47
-1 1 11 176.3 15.28
1 -1 11 194.9 14.92
-1 -1 11 179.77 14.45
-1 1 -11 191.86 15.66
1 1 11 175.11 13.9
1 -1 11 177.17 15.07
1 1 11 169.39 14.54
1 1 -11 194.19 15.23
-1 1 11 184.93 14.16
1 -1 11 201.7 14.44
-1 -1 -11 201.72 14.61
-1 1 11 209.15 14.54
-1 1 -11 159.36 14.82
-1 -1 11 186.25 14.8
1 1 11 213.11 13.87
-1 -1 -11 205.02 15.35
1 1 -11 169.64 14.73
-1 -1 11 179.3 14.74
-1 1 -11 171.01 14.33
-1 1 11 188.2 14.27
-1 -1 12 20.02 2.83
1 -1 12 21.67 2.87
1 1 -12 13.9 2.17
-1 1 -12 16.08 3.2
-1 1 12 12.55 2.78
-1 -1 12 9.67 2.07
-1 -1 -12 17.49 2.36
1 -1 12 13.84 2.23
-1 -1 -12 11.86 2.99
-1 1 -12 12.51 2.88
1 1 12 18.54 1.7
1 1 12 13.52 3.17
-1 -1 12 11.52 1.97
1 -1 -12 17.04 1.95
-1 1 12 9.8 2.97
-1 1 12 17.23 2.28
1 -1 -12 19.54 2.31
-1 1 -12 11.04 2.53
1 -1 -12 5.64 2.85
-1 -1 -12 12.48 2.62
1 -1 12 7.25 3.09
1 1 -12 8.47 3.13
1 -1 12 18.63 2.27
-1 1 -12 14.68 2.09
-1 -1 12 15.21 2.24
-1 -1 -12 14.65 2.59
1 1 12 15.58 1.67
-1 1 12 15.13 1.95
1 -1 -12 14.85 2.89
1 -1 -12 18.22 2.31
1 1 -12 13.32 2.85
-1 -1 12 14.37 2.13
-1 1 -12 5.41 2.77
-1 -1 12 14.96 2.46
1 1 12 9.39 3.42
1 1 12 16.99 2.55
-1 -1 12 10.73 2.86
1 -1 -12 12.99 2.48
1 1 12 16.68 2.16
1 1 -12 15.85 2.58
1 1 12 10.93 2.17
-1 -1 -12 11.5 1.42
-1 -1 -12 12.6 2.83
1 -1 12 13.26 2.68
-1 1 12 12.83 1.99
1 1 12 10.08 3.11
-1 -1 -12 15.51 2.23
-1 1 -12 13.73 2.18
-1 -1 12 13.06 2.52
-1 -1 -12 14.78 3.25
-1 1 12 16.98 1.88
-1 1 12 14.11 2.15
-1 1 12 12.96 2.4
1 -1 12 16.81 2.76
1 1 -12 14.09 2.71
1 1 -12 11.42 2.39
-1 1 -12 14.22 2.64
-1 1 12 19.36 2.08
1 -1 12 12.08 2.61
1 -1 13 58.85 5.74
1 -1 -13 42.57 6.4
-1 -1 -13 64.4 5.19
1 1 13 51.9 6.1
1 -1 13 55.19 5.17
1 1 13 56.68 5.04
1 1 13 51.73 4.81
-1 -1 13 62.12 5.09
1 1 -13 59.7 5.49
-1 1 13 32.79 5.82
-1 -1 -13 37.46 5.62
1 -1 -13 55.3 4.88
-1 1 13 58.11 5.37
-1 1 -13 58.39 5.06
-1 1 13 61.09 4.84
-1 -1 13 48.48 5.07
-1 1 13 58.01 5
-1 -1 -13 53.78 4.29
-1 -1 13 55.54 5.55
-1 -1 13 57.39 5.09
-1 -1 -13 57.96 5.22
1 1 13 55.4 6.57
1 -1 -13 68.29 6.21
1 1 13 58.24 5.31
1 1 13 54.82 5.39
1 1 -13 57.04 4.93
-1 1 -13 46.36 5.43
-1 1 -13 58.08 5.66
-1 1 13 51.99 4.55
-1 1 13 47.6 4.68
1 -1 13 38.55 6.28
1 -1 13 56.54 5.85
-1 1 -13 52.72 6
-1 -1 -13 42.56 5.65
1 1 -13 30.91 5.93
-1 -1 -13 51.69 5.41
1 1 13 55.14 4.49
-1 -1 13 60.06 5.54
-1 1 13 44.82 5.67
-1 1 -13 50.68 4.96
1 1 -13 52.74 5.72
1 -1 -13 54.77 5.31
1 -1 -13 60.2 5.07
1 -1 -13 60.96 4.8
1 -1 13 59.36 5.84
1 -1 13 57.86 5.55
1 1 -13 43.16 5.24
1 1 -13 42.42 5.76
-1 1 -13 46.41 6.06
-1 1 13 52.7 4.99
-1 -1 -13 56.59 5.6
-1 -1 13 44.08 5.22
-1 1 -13 31.06 5.69
-1 -1 -13 59.01 6.19
1 1 13 31.68 5.95
-1 -1 13 41.83 5.99
1 -1 13 61.68 4.99
-1 1 13 53.66 4.62
1 -1 -14 208.64 15.28
1 1 14 193.48 15.53
1 1 -14 220.03 15.39
1 -1 14 200.6 16.18
-1 -1 -14 187.7 16.47
1 1 14 197.52 15.31
-1 -1 14 201.53 15.99
1 1 -14 194.34 16.06
1 1 14 210.2 16.63
-1 1 14 233.31 15.41
-1 1 -14 187.07 16.9
-1 1 14 148.83 16.29
1 -1 -14 221.35 15.47
-1 1 -14 189.6 16.66
-1 -1 14 204.15 15.73
-1 -1 14 161.98 16.24
-1 -1 -14 217.78 16.98
1 -1 14 201.7 16.49
-1 1 14 217.08 16.14
-1 1 14 185.24 16.52
-1 -1 14 196.15 16.14
1 -1 14 198.05 16.42
-1 1 -14 201.37 15.62
-1 -1 -14 220.44 15.87
1 -1 -14 226.42 16.86
-1 1 14 197.71 15.14
1 1 14 112.88 16.21
1 -1 -14 157.57 16.8
1 1 -14 120.96 16.31
1 -1 14 132 16.4
1 1 -14 193.58 16.6
1 1 14 212.6 16.14
1 -1 14 204.42 15.39
1 -1 14 202.82 15.83
1 -1 -14 187.44 16.3
-1 1 -14 206.51 15.52
-1 -1 -14 176.96 14.8
-1 -1 -14 207.3 16.25
1 1 -14 204.93 16
1 1 14 211.27 15.95
1 1 14 186.45 17.1
1 -1 -14 202.5 16.03
-1 -1 14 194.02 15.79
-1 1 14 228.29 15.58
-1 -1 14 208.34 15.47
-1 -1 -14 210.64 15.54
1 1 -14 202.65 16.57
-1 1 -14 185.77 16.12
-1 -1 14 223.38 16.13
-1 1 -14 131.76 16.11
-1 -1 -14 202.53 16.24
1 -1 14 202.05 16.15
1 1 14 219.38 15.1
-1 1 14 195.45 15.62
1 -1 -14 237.55 15.67
-1 -1 -14 178.11 16.42
-1 1 -14 216.94 16.35
-1 1 14 189.65 15.22
-1 1 -15 172.8 14.94
-1 1 15 148.96 14.29
-1 -1 -15 158.94 14.32
-1 1 -15 162.64 14.01
1 1 15 169.32 15.22
-1 -1 -15 154.2 13.99
1 -1 -15 175.54 13.14
-1 -1 15 251.22 14.94
1 1 15 170.06 13.42
1 -1 -15 173.95 13.24
-1 -1 15 289.73 14.92
-1 -1 15 126.63 13.92
-1 -1 -15 125.16 13.93
1 -1 -15 171.24 14.08
-1 1 15 114.89 13.72
-1 -1 15 193.92 13.43
-1 1 -15 153.4 13.45
-1 -1 -15 151.46 13.61
1 -1 -15 182.08 14.81
-1 -1 15 248.13 14.29
-1 1 15 185.02 14.11
1 -1 -15 95.03 14.01
1 -1 15 98.01 14.02
1 1 15 160.55 13.84
1 -1 15 156.81 13.6
-1 -1 -15 181.01 14.9
-1 -1 -15 181.87 14.3
1 1 -15 220.21 15.26
1 1 15 91.29 13.89
-1 -1 15 252.31 14.65
1 -1 15 147.99 13.78
1 1 -15 252.44 13.55
1 -1 15 154.53 13.79
-1 1 15 172.94 13.01
1 1 -15 242.37 14.71
1 -1 -15 183.41 13.35
1 1 15 152.42 13.66
1 1 -15 190.38 14.13
1 -1 15 180.1 13.26
1 -1 -15 172.35 14.27
-1 1 -15 143.45 13.09
1 -1 15 152.23 14.19
-1 1 -15 155.46 14.75
-1 1 15 172.88 13.13
1 1 15 170.07 12.9
1 -1 15 143.81 14.02
1 1 -15 181.99 14.78
-1 1 15 140.42 13.41
-1 1 -15 161.69 13.99
-1 1 -15 122.07 13.83
-1 -1 15 238.55 14.49
-1 -1 -15 157.76 13.21
1 -1 -16 28.63 2.8
-1 1 -16 17.35 3.96
-1 -1 16 30.53 4.08
1 -1 -16 25.69 3.8
-1 -1 16 32.74 3.98
-1 -1 -16 13.33 3.13
-1 -1 -16 16.09 3.81
-1 1 -16 17.58 3.76
-1 1 16 23.33 4.02
1 1 16 22.47 3.01
-1 -1 -16 10.29 3.36
1 1 16 22.46 4.7
1 1 16 22.58 3.27
-1 -1 16 28.98 3.64
1 -1 16 19.51 3.77
1 1 -16 14.62 3.61
-1 1 -16 24.85 3.22
-1 -1 -16 26.28 3.41
-1 -1 16 23.13 3.17
-1 1 16 26.63 3.5
-1 1 16 33.23 2.92
1 1 16 30.74 3.55
1 -1 16 21.77 3.16
1 -1 -16 12.57 3.68
1 -1 16 15.06 4.06
1 1 -16 17.42 3.7
1 -1 16 31.6 3.02
-1 -1 -16 23.37 3.8
-1 1 16 17.07 2.44
1 1 -16 24.83 3.49
1 -1 -16 16.98 3.31
1 -1 16 22.2 3.64
-1 -1 16 14.56 3.26
1 1 -16 24.46 3.66
1 -1 -16 18.22 3.98
-1 -1 -16 23.82 4.24
-1 1 16 15.9 2.93
-1 -1 -16 28.76 2.94
-1 -1 16 30.82 2.95
1 -1 -16 31.71 2.96
-1 -1 -16 15.79 2.59
-1 1 -16 25.82 3.68
1 -1 -16 32.25 3.09
-1 1 -16 27.54 3.77
1 1 -17 284.88 27.73
1 1 -17 300.4 27.13
-1 1 -17 358.74 27.5
-1 1 -17 320.02 28.15
1 1 17 331.61 28.85
1 -1 -17 344.56 28.2
-1 1 17 332.69 26.96
-1 1 17 393.41 27.64
-1 -1 17 349.44 27.08
1 -1 17 251.87 27.54
1 1 17 400.12 27.65
1 -1 17 338.59 27.14
1 -1 -17 308.4 27.34
-1 -1 -17 388.03 28.65
1 1 17 376.47 27.36
1 1 -17 357.57 28.32
-1 1 -17 357.14 27.01
-1 1 -17 323.42 27.43
-1 -1 17 323.23 27.31
-1 -1 -17 395.73 27.94
1 -1 -17 352.55 26.48
-1 1 17 304.87 27.89
-1 -1 -17 368.23 26.61
1 1 -17 345.67 27.32
1 -1 -17 398.05 26.66
-1 -1 17 362.78 27.31
-1 1 17 364.64 26.57
-1 1 -17 305.21 28.25
-1 -1 -17 358.91 27.8
1 -1 -17 428.38 26.79
1 -1 -17 327.75 27.54
1 1 17 378.1 27.02
-1 1 18 214.46 20.15
1 1 18 212.67 20.95
1 1 -18 225.1 20.27
-1 1 18 264.68 19.78
1 1 -18 230.65 19.44
1 -1 -18 248.59 19.9
-1 -1 18 197.88 19.41
-1 -1 18 236.74 19.25
1 1 18 287.97 20.03
1 -1 18 235.35 19.33
-1 -1 -18 260.09 20.82
-1 1 18 234.21 19.17
-1 1 -18 238.37 20.61
-1 -1 -18 250.47 20.09
1 1 18 248.2 19.5
1 -1 -18 262.39 20.81
1 1 18 253.41 19.22
-1 -1 18 227.39 19.38
-1 1 -18 267.7 19.29
-1 -1 -18 249.13 19.96
-1 1 18 272.8 18.83
1 -1 -18 280.77 18.93
1 1 -18 218.7 19.39
-1 1 -18 216.61 19.57
-1 1 -18 271.73 19.92
-1 1 -18 223.77 20.59
1 1 -18 209.51 20.2
1 -1 -18 227.17 19.8
1 -1 -19 18.78 3.67
-1 -1 -19 15.59 3.37
-1 1 19 17.97 4.02
1 1 19 28.65 3.82
-1 -1 -19 23.04 4.13
1 1 19 24.99 5.19
1 1 -19 19.01 3.23
-1 1 -19 28.05 3.81
-1 1 19 26.77 3.96
1 -1 -19 24.83 4.42
1 1 19 20.05 3.37
-1 1 19 21.82 3.25
1 1 -19 13.5 3.01
-1 1 -19 27.66 4.5
1 -1 19 19.62 3.33
-1 1 -19 18.62 3.21
1 1 -19 13.15 3.71
-1 -1 19 19.43 3.17
-1 1 19 19.71 2.72
1 -1 -19 24.39 2.78
-1 -1 19 19.15 3.43
-1 1 -19 14.1 3.26
1 1 -19 14.78 3.77
-1 -1 -19 22.67 4.25
1 -1 20 54.57 5.53
1 1 -20 50.79 5.69
-1 -1 -20 54.79 6.26
1 -1 -20 60.08 6.81
-1 1 20 66.17 6.09
-1 -1 20 55.87 5.51
1 1 20 46.78 5.59
-1 -1 -20 56.71 6.8
-1 1 -20 45.1 6.45
1 1 -20 46.48 5.49
1 -1 -20 40.83 5.9
1 1 -20 46.68 6.39
-1 1 20 46.52 6.48
-1 1 20 52.45 5.01
1 -1 -20 54.9 4.98
-1 1 -20 52.24 5.76
1 1 20 39.71 6.89
1 1 -20 46.1 6.4
1 1 -21 43.74 5.12
-1 1 21 44.19 6.31
-1 -1 -21 36.99 5.84
1 1 21 41.25 7.14
-1 1 21 50.33 5.3
-1 -1 21 43.73 4.8
-1 1 -21 43.38 6.25
1 1 21 48.32 5.22
1 -1 21 34.26 4.68
1 1 -21 39.16 5.81
-1 -1 -21 37.29 5.42
1 1 -21 36.64 4.82
1 -1 -21 30.39 5.49
1 -1 -21 36.79 5.46
-1 1 -21 45.89 5.3
1 1 -21 33.48 5.81
1 1 -22 108.92 13.01
1 1 22 103.99 14.1
-1 1 22 131.67 13.71
1 -1 -22 169.06 13.53
1 -1 -22 136.04 13.42
-1 1 22 168.31 12.86
-1 -1 22 137.59 12.16
1 1 22 165.11 12.89
1 -1 22 156.53 12.47
-1 -1 -22 144.32 13.76
1 1 -22 117.9 12.14
1 1 -22 146.59 12.4
-1 1 -22 174.6 12.85
-1 1 -22 140.86 13.65
1 1 -22 116.67 13.11
-1 -1 -22 136.16 13.01
-1 -1 -23 79.17 8.3
-1 1 23 46.99 7.62
1 1 23 45.99 8.22
1 1 -23 53.03 6.39
-1 -1 -23 42.02 6.62
1 -1 -23 65.41 7.65
-1 1 23 78.97 7.14
-1 -1 23 59.02 6.35
1 1 23 81.25 7.17
1 -1 23 67.95 6.69
1 1 -23 67.07 7.88
-1 1 -23 46.67 7.3
1 -1 -23 55.79 7.14
1 1 -23 62.02 7.9
-1 1 -23 70.23 6.94
1 1 -23 55.56 6.42
-1 1 24 48.87 7.28
-1 -1 -24 45.33 6.54
1 1 24 30.49 7.27
-1 1 24 44.21 5.72
1 -1 -24 49.84 6.46
-1 -1 24 47.6 5.45
1 1 24 47.83 5.9
1 -1 24 51.98 5.74
1 1 -24 55.17 5.86
1 1 -24 42.99 5.57
-1 -1 -24 42.96 6.28
1 -1 -24 47.58 6.66
1 1 -24 34.64 6.35
-1 1 -24 49.41 6.84
1 1 -24 39.25 6.58
-1 1 -24 46.44 5.68
1 1 25 36.3 7.08
-1 1 25 26.04 5.89
1 1 -25 35.39 4.76
1 1 -25 32.7 5.88
1 -1 -25 31.44 5.69
1 -1 25 36.39 4.85
-1 1 25 40.73 5.19
1 -1 -25 31.6 5.41
-1 -1 25 37.57 4.8
-1 -1 -25 38.06 5.57
-1 1 -25 27.64 5.34
1 1 25 44.5 5.32
-1 -1 -25 29.99 5.62
1 1 -25 27.27 5.46
-1 1 -25 33.96 4.93
1 1 -25 33.27 4.87
-1 1 26 51.04 8.21
1 1 26 60.43 9.06
1 -1 26 39.78 5.84
-1 1 26 62.65 6.79
-1 -1 26 56.32 6.42
1 1 26 53.99 6.56
1 -1 -26 54.48 7.21
1 -1 -26 53.65 7.41
-1 1 -26 47.88 7.42
1 1 -26 44.12 6.87
1 1 -26 50.26 7.5
1 1 -26 76.68 6.8
-1 1 -26 59.93 6.44
-1 -1 -26 40.79 7.03
-1 -1 -26 28.55 6.17
1 -1 -27 218.16 19.7
-1 1 -27 231.24 20.45
-1 -1 -27 205.91 19.59
-1 1 -27 258.39 19.13
1 -1 -27 203.53 19.98
-1 1 27 230.79 19.22
-1 -1 27 216.98 18.73
1 -1 27 229.75 18.93
-1 -1 -27 189.31 19.92
1 1 -27 202.41 20.06
1 1 27 244.13 19.4
1 1 -27 248.56 18.83
-1 1 27 217.62 21.06
1 1 27 187.6 21.22
1 1 -28 160.52 16.97
-1 1 -28 175.24 17.26
1 -1 -28 182.47 17.24
-1 1 28 187.24 16.01
-1 -1 28 187.04 15.64
1 -1 28 172.76 15.6
-1 -1 -28 157.08 16.79
-1 -1 -28 188.71 16.87
-1 1 -28 203.95 15.81
1 1 28 184.25 16
1 1 28 122.57 17.34
1 1 -28 202.02 15.7
1 -1 -28 165.51 16.44
1 1 -29 23.31 4.61
1 -1 29 35.22 5.03
-1 -1 -29 23.95 5.68
1 -1 -29 16.25 5.41
1 1 -29 27 5.48
1 -1 -29 22.92 4.96
-1 1 -29 36.5 6.02
1 1 29 42.67 5.6
-1 -1 29 31.45 4.65
-1 -1 -29 31.01 5.44
-1 1 29 30.43 5.06
-1 1 -29 24.78 4.69
-1 1 -30 36.39 5.93
1 1 30 56.76 6.81
1 1 -30 33.54 7.15
-1 -1 -30 41.66 6.85
-1 -1 -30 37.57 6.87
1 1 -30 42.14 5.75
1 -1 -30 43.93 6.92
-1 1 -30 49.75 7.78
-1 -1 30 45.71 6.15
1 -1 -30 57.2 7.75
-1 1 -30 60.67 6.47
-1 1 30 40.71 6.13
1 -1 30 36.55 6.02
1 -1 -31 94.89 11.82
-1 1 31 107.7 10.9
-1 -1 31 101.56 10.34
1 1 31 126.16 11.41
1 -1 31 103.75 10.55
-1 -1 -31 96.12 11.73
1 -1 -31 102.42 11.76
-1 1 -31 103.51 10.3
-1 1 -31 81.86 11.63
1 1 -31 124.8 10.54
1 1 -31 82.45 11.67
-1 1 -31 97.54 10.84
-1 -1 -31 101.19 11.77
-1 1 32 17.83 4.39
1 1 -32 19.35 3.83
-1 1 -32 23.1 4.04
-1 -1 -32 15.48 4.83
1 -1 -32 15.76 4.48
1 1 -32 9.68 4.59
-1 1 -32 6.88 3.85
-1 1 -32 13 3.8
-1 -1 32 10.27 3.52
1 1 32 10.87 3.78
1 -1 32 12.51 3.72
1 -1 -32 24.29 5.64
-1 1 -33 6.63 3.37
1 1 -33 7.14 2.83
1 -1 33 3.53 2.99
-1 1 -33 12.95 3.39
1 1 33 5.94 3.35
-1 -1 33 7.27 3.1
1 1 -33 -3.01 4.65
-1 1 -33 6.12 4.18
-1 1 33 8.25 3.6
1 -1 -33 10.17 4.22
-1 -1 -33 6.57 4.28
-1 1 -34 3.4 2.9
1 1 -34 3.1 2.44
-1 1 -34 5.31 2.88
-1 -1 -34 0.97 3.22
-1 1 34 3.28 2.98
1 1 -34 1.03 3.32
-1 1 -34 -1.05 3.75
1 -1 -34 7.63 4.07
-1 -1 34 0.58 2.57
1 -1 34 4.25 2.96
-1 1 34 1.39 4.8
1 1 34 2.07 2.94
-1 1 -35 15.18 4.05
-1 1 -35 12.99 5.62
1 1 35 12.78 4.26
-1 1 -35 20.32 4.26
-1 -1 -35 15.91 5.18
-1 -1 35 14.4 4.11
1 -1 35 10.78 3.91
1 1 -35 20.7 4.04
1 1 -35 2.13 4.46
1 -1 -35 14.73 5.04
-1 1 35 12.17 4.11
-1 1 35 10 5.91
1 1 -36 32.64 5.11
-1 1 -36 17.82 6.24
-1 1 -36 33.4 5.25
1 1 36 29.96 5.87
1 1 -36 19.76 6.24
1 -1 -36 23.25 6.13
1 -1 36 29.42 5.35
-1 -1 -36 24.54 5.99
-1 1 36 25.93 5.41
-1 -1 36 21.02 4.98
-1 1 -36 31.77 5.55
-1 1 36 16.11 7.5
-1 -1 -37 1.05 3.74
1 1 -37 3.85 2.45
1 1 37 -3.01 3.95
-1 -1 37 1.28 3.02
1 -1 -37 3.12 3.58
1 1 -37 2.26 4.26
-1 1 -37 -2.3 3.69
-1 1 37 -0.72 3.45
1 -1 37 -2.02 3.33
-1 1 37 1.5 5.66
-1 1 -37 0.55 2.35
-1 1 -37 0.71 3.08
1 1 -38 27.58 4.77
-1 1 -38 23.98 6.03
-1 1 -38 24.24 4.53
1 -1 38 17.29 4.85
-1 1 38 15.55 5.04
-1 -1 38 17.16 4.68
1 1 38 18.53 4.86
1 1 -38 20.86 6.67
-1 1 -38 12.99 5.82
-1 1 -38 13.72 4.39
-1 1 38 6.14 6.69
-1 -1 -38 15.05 5.67
1 1 39 15.24 4.95
1 1 -39 21.79 4.45
-1 1 -39 19.36 4.34
1 -1 -39 17.38 5.48
-1 1 39 1.57 6.17
1 -1 39 17.26 4.77
-1 -1 39 24.4 4.9
-1 -1 -39 9.92 5.11
1 1 -39 7.14 5.49
-1 1 -39 9.64 4.69
-1 1 -39 7.27 5.99
-1 1 39 12.25 4.59
1 1 -40 26.93 4.78
1 -1 40 13.28 4.73
-1 1 40 14.92 5.2
1 -1 -40 17.81 5.92
-1 1 -40 17.37 6.66
1 1 -40 17.06 6.36
-1 -1 40 9.11 4.56
-1 1 -40 26.35 6.39
-1 1 40 25.5 9.28
1 1 40 18.1 5.39
-1 1 -40 22.65 4.75
-1 -1 -40 15.8 6.16
1 1 -41 22.03 4.83
-1 1 -41 22.81 4.67
1 -1 41 14.36 4.83
-1 1 41 26.01 9.03
1 1 -41 12.48 6.44
-1 1 41 17.68 5.72
1 1 41 25.27 5.98
-1 1 -41 16.55 7.47
-1 1 -41 25.89 6.49
1 -1 -41 20.52 6
-1 -1 41 10.06 4.99
-1 -1 -41 36.96 7.61
1 1 42 4.31 4.3
-1 1 -42 13.01 6.08
1 1 -42 8.93 6.08
1 1 -42 21.85 4.64
-1 1 42 11.61 5.19
-1 1 42 8.29 7.13
-1 1 -42 12.67 5.59
1 -1 -42 17.38 5.72
-1 -1 -42 17.71 5.73
1 1 -43 37.7 6.01
-1 1 -43 30.54 7.53
2 1 0 124.67 7.75
2 -1 0 147.06 7.45
2 1 0 37.48 7.4
-2 1 0 51.32 6.44
2 1 0 30.85 6.53
2 -1 0 62.93 7.84
2 1 0 89.06 6.36
-2 -1 0 24.15 7.56
2 1 0 65.09 6.85
-2 -1 0 60.26 6.91
-2 1 0 148.85 7.66
2 1 0 65.29 6.92
-2 -1 0 79.9 6.36
-2 1 0 103.12 7.66
-2 -1 0 124.69 7.57
2 -1 0 111.42 7.97
2 -1 0 196.93 8.32
2 -1 0 47.76 6.54
2 -1 0 153.59 7.25
-2 1 0 134.51 7.62
-2 -1 0 66.46 6.92
-2 1 0 52.51 6.6
-2 -1 -1 3209.22 239.18
-2 -1 -1 3165.56 238.53
2 1 -1 3326.82 239.17
2 -1 1 3413 238.97
2 1 1 3400.38 239.42
2 1 -1 3326.77 239.19
2 -1 -1 3336.12 239.14
2 -1 1 3371.12 239.06
2 1 1 3194.44 238.7
-2 1 -1 3271.08 239.13
-2 1 -1 3384.64 239.21
-2 1 1 3286.5 238.88
-2 1 -1 3370.62 238.88
2 1 -1 3227.35 238.81
2 -1 1 3174.87 238.75
2 -1 -1 3378.19 240.41
2 -1 1 3243.78 240.17
-2 -1 1 3117.4 238.82
-2 -1 1 3365.46 239.78
-2 1 1 3385.96 239.58
2 1 1 3277.42 239.26
2 -1 1 3398.81 239.14
-2 1 1 3318.49 238.82
2 1 -1 3290.55 239.67
2 -1 -1 3214.23 239.66
-2 -1 -1 3272.29 239.86
2 -1 1 3310.6 239.11
-2 1 -1 3353.51 239.1
2 -1 1 3299.35 239.37
2 1 1 3172.55 239.73
2 -1 -1 3169.97 238.58
-2 1 -1 3330.45 238.79
-2 -1 1 3179.52 239.14
2 1 -1 3228.44 238.62
2 1 1 3258.45 238.47
2 -1 -1 3283.7 238.81
2 1 1 3259.83 238.98
-2 -1 -1 3166.67 239.31
-2 1 -1 3438.15 239.2
-2 1 -1 3270.7 238.59
2 -1 -1 3417.62 238.98
-2 1 1 3263.79 238.94
2 1 -1 3223.79 239.28
2 -1 -1 3420.91 239.04
2 1 1 3342.47 239.36
-2 -1 -1 3252.81 239.14
-2 -1 1 3204.75 238.66
2 1 -2 9019.71 659.15
2 1 2 9300.58 659.6
2 1 -2 9059.94 659.44
2 1 2 8995.1 659.51
2 1 -2 9203.92 659.21
2 1 -2 8995.08 658.94
-2 1 -2 9442.36 659.16
2 1 -2 8915.21 658.78
2 -1 2 8907.49 659.23
-2 -1 2 8977.38 659.17
2 -1 -2 9886.45 659.13
2 -1 -2 8806.95 659.84
-2 -1 -2 8939.19 659.24
2 -1 2 8713.5 658.87
-2 -1 2 8846.5 658.91
-2 1 2 9184.44 658.91
-2 1 2 8992.58 658.55
-2 1 -2 9186.82 660.01
2 -1 2 9021.69 660.22
2 1 2 9191.79 660.46
2 -1 -2 9048.78 658.61
-2 1 -2 8927.05 658.62
-2 -1 -2 8849.06 659.98
2 1 -2 9241.48 659.72
2 1 2 8884.6 658.71
-2 -1 -2 8438.97 659.47
-2 1 2 9029.81 658.84
2 1 2 9999 659.09
2 -1 2 9030.04 659.29
2 1 -2 9044.67 658.86
2 -1 -2 9655.96 658.63
-2 -1 -2 9127.72 659.36
-2 1 -2 9111.86 659.32
-2 -1 -2 8822.22 658.9
-2 1 -2 9211.72 659.25
2 -1 -2 9209.74 658.98
-2 1 2 9109.63 659.79
2 -1 2 8895.89 659.18
2 -1 -2 8920.52 659.18
2 -1 2 9122.86 659.19
-2 1 2 9161.66 658.97
-2 1 -2 8682.92 659.32
2 -1 2 9277.65 659.15
2 1 2 8770.51 658.49
-2 1 -2 9101.22 658.98
-2 -1 2 8974.82 658.82
-2 -1 -3 995.81 74.82
2 1 3 1059.45 75.17
-2 -1 3 989.94 74.29
-2 1 -3 1038.56 74.74
-2 -1 3 997.79 74.54
-2 1 3 1027.11 75.41
2 1 -3 1006.77 74.54
2 1 -3 1030.97 74.96
2 -1 3 953.1 74.36
-2 -1 -3 979.42 75.47
2 -1 3 991.91 75.54
-2 1 -3 979.33 75.29
2 1 3 993.64 75.79
-2 -1 3 1024.85 74.91
2 -1 3 974.09 74.71
-2 1 -3 1014.62 73.99
-2 -1 -3 994.98 74.35
2 -1 3 1005.77 74.59
-2 -1 3 1028.33 74.32
2 -1 -3 1041.57 74.33
-2 1 3 1008.51 74.31
2 -1 -3 1019.04 74.11
2 1 3 1001.18 74.06
-2 1 -3 1040.85 74.43
2 -1 3 1008.94 74.65
2 1 -3 1021.85 74.45
-2 -1 -3 991.47 74.65
2 -1 -3 993.41 75.43
2 -1 3 1032.16 74.62
2 -1 -3 1010.88 74.59
2 1 -3 1115.07 74.67
2 -1 3 1014.02 74.66
2 1 3 989.11 75.02
-2 1 -3 977.83 74.87
2 1 3 1045.83 74.45
2 -1 -3 1161.01 74.57
2 1 -3 1023.36 74.28
-2 1 3 1007.62 74.15
-2 1 -3 957.03 74.48
2 1 3 976.14 73.83
2 1 -3 1044.57 75.15
-2 1 -3 1010.2 74.83
-2 1 3 1056.64 74.69
-2 -1 -4 2878.89 211.58
-2 1 4 2998.65 211.31
2 1 4 2806.18 211.77
-2 -1 4 2843.14 211.15
-2 1 -4 2930.49 211.47
2 1 -4 2941.49 211.16
2 1 -4 3019.9 210.84
-2 1 -4 2821.23 211.28
2 -1 4 2822.41 211.23
-2 -1 4 2797.27 210.92
-2 -1 4 2756.89 211.42
-2 1 -4 2989.09 212.07
2 1 4 2949.96 212.55
2 -1 -4 2690.08 212.1
-2 -1 4 2855.33 211.01
-2 1 -4 3101.56 211.03
-2 1 -4 2896.69 211.6
2 -1 -4 2885.58 210.9
-2 -1 -4 2868.56 211.03
-2 -1 -4 2886.88 211.35
2 1 4 3014.53 211.15
-2 1 -4 2801.19 211.67
2 1 -4 2969.66 211.78
2 -1 4 2868.66 211.48
2 -1 4 2940.66 211.44
2 -1 4 2912.13 211.36
2 1 -4 2881.31 210.99
-2 1 -4 2921.14 210.65
-2 1 4 2890.88 212.24
-2 1 4 2894.6 210.7
2 -1 -4 2834.18 211.24
2 1 -4 2879.55 211.15
-2 1 4 2940.74 210.93
2 -1 4 2933.63 211.15
2 1 4 2818.89 210.62
-2 -1 -4 2707.93 212.12
-2 1 4 2856.77 211.24
-2 1 -4 3010.44 210.99
2 -1 4 2766.99 211.1
2 1 4 3054.64 211.98
2 1 -4 2886.42 211.1
-2 -1 -5 33.25 3.59
-2 -1 5 29.23 3.02
2 1 -5 28.74 2.88
2 -1 5 31.25 3.16
2 -1 5 26.85 3.25
2 1 5 25.65 3.57
-2 1 5 25.85 2.58
-2 1 -5 23.81 3.05
-2 1 5 25.7 2.93
-2 -1 5 26.59 3.22
-2 1 -5 25.05 2.39
-2 -1 -5 28.22 3.04
2 1 5 25.08 3.9
2 -1 -5 29.92 3.17
-2 1 -5 22.4 3.45
-2 1 -5 23.74 2.7
2 -1 -5 24.14 2.74
2 -1 5 22.15 2.23
2 1 5 28.14 3
2 -1 5 25.59 3.22
2 1 5 32.81 3.64
2 1 -5 25.32 2.62
2 1 5 26.22 2.25
2 -1 -5 21.1 2.36
-2 -1 -5 29.29 3.36
-2 1 5 23.84 2.32
2 1 -5 27.32 2.86
-2 -1 -5 25.24 2.75
2 1 5 28.38 3.75
-2 1 -5 25 3.19
2 1 5 27.31 2.91
2 -1 5 28.65 3.14
2 -1 -5 24.42 4.07
2 1 -5 22.46 2.73
2 -1 5 29.84 2.86
2 1 -5 23.06 2.9
-2 1 5 27.84 3.04
-2 1 -5 26.21 3.37
-2 1 5 22.36 3.78
-2 -1 5 26.52 2.81
-2 -1 5 25.35 2.74
-2 -1 5 27.84 2.9
-2 1 -5 24.25 3.28
2 -1 6 4317.92 313.98
-2 -1 -6 4319.38 314.15
2 -1 6 4415.9 312.93
2 -1 -6 4181.1 313.63
2 -1 -6 4061.42 313.12
-2 1 -6 4319.3 314.2
2 1 6 4619.92 314.34
-2 1 -6 4517.78 313.39
-2 1 6 4265.69 313.2
-2 1 -6 4346.64 314.37
2 1 6 4598.34 315.04
-2 -1 -6 4449.9 315.21
2 1 6 4219.06 314.45
-2 1 6 4512.84 313.61
2 1 6 4407.89 313.61
2 -1 -6 4285.37 313.55
-2 -1 6 4403.3 313.7
-2 -1 -6 4223.55 313.46
-2 -1 6 4044.66 313.76
-2 1 -6 4238.6 313.97
2 1 -6 4291.36 313.28
-2 1 6 4191.1 314.92
-2 -1 -6 4132.88 313.83
-2 1 -6 4142.71 314.32
2 -1 6 4242.15 313.84
2 -1 6 4473.37 313.36
2 -1 -6 4222.3 313.55
2 1 -6 4325.66 313.73
2 -1 -6 4649.11 313.45
2 1 6 4390.27 313.72
2 1 -6 4293.57 313.51
-2 1 -6 4274.54 313.07
2 1 -6 4533.91 313.53
2 -1 6 4326.08 313.65
2 1 6 4543.03 314.66
-2 1 6 4317.36 313.59
-2 1 6 3843.9 312.9
-2 1 -6 4554.72 314.24
-2 -1 6 4278.27 313.51
-2 -1 -6 4567.6 313.69
2 -1 6 4353.11 314.05
-2 -1 6 4328.09 313.49
-2 -1 -7 742.34 55.97
2 -1 7 733.7 54.75
-2 -1 7 749.66 55.25
2 1 -7 771.87 55.28
2 -1 -7 736.02 55.3
2 1 7 775.19 56.53
2 1 7 707.73 56.25
2 1 7 790.18 56.8
-2 -1 -7 723.17 56.82
-2 1 -7 752.08 56.14
2 -1 -7 717.24 55.42
-2 1 -7 753.54 55.15
-2 1 -7 766.27 55.96
2 1 -7 741.43 55.58
2 -1 7 757.84 55.92
-2 -1 7 693.1 55.51
-2 -1 -7 755.69 55.29
2 1 -7 742.73 55.35
2 1 7 819.05 56.03
2 -1 7 786.87 55.11
-2 1 7 702.53 56.76
-2 1 7 771.17 55.33
-2 1 -7 732.05 55.81
2 1 7 741.63 55.52
2 -1 -7 733.09 55.36
-2 -1 -7 776.4 55.55
-2 1 7 760.83 54.92
2 -1 7 727.48 55.63
-2 -1 7 762.87 55.51
2 1 -7 749.99 55.17
-2 1 -7 733.8 56.19
-2 1 7 750.35 55.35
2 -1 7 747.39 55.86
-2 1 -7 746.06 56.07
-2 -1 7 708.9 55.28
2 -1 -7 772.84 55.24
2 1 7 736.59 55.41
2 -1 7 734.93 55.39
2 1 7 802.08 56.16
-2 -1 -7 718.49 55.59
-2 1 8 876.54 70.44
-2 1 -8 940.54 69.51
2 -1 8 947.79 68.36
-2 1 8 905.37 68.36
-2 -1 8 931.11 68.76
2 1 -8 955.66 68.82
2 -1 8 923.45 68.89
2 1 -8 938.42 69.29
-2 -1 -8 941.97 69.6
-2 -1 -8 950.61 70.48
2 -1 -8 880.32 69.02
-2 -1 -8 984.28 69.2
-2 -1 -8 905.26 69.1
-2 -1 8 952.68 68.46
2 -1 -8 972.45 68.83
-2 -1 -8 935.26 68.85
-2 1 -8 951.59 68.72
2 -1 8 908.31 68.9
2 1 8 937.94 69.12
-2 1 -8 910.81 69.4
2 -1 8 906.57 69.46
-2 1 -8 948.29 69.73
2 -1 8 989.91 68.62
-2 1 8 980.16 68.85
2 -1 8 931.56 69.23
2 1 8 989.87 69.58
2 1 -8 931.58 69.21
2 1 -8 929.14 68.78
2 -1 -8 931.28 68.82
-2 1 8 965.5 68.87
-2 -1 -8 997.43 69.94
2 1 8 881.9 70.06
2 -1 8 979.17 69.53
-2 -1 8 939.98 69.08
-2 1 -8 920.35 69.83
2 1 8 991.85 69.72
2 1 -8 892.29 68.89
2 -1 -8 870.85 68.85
2 1 8 956.78 69.05
-2 -1 8 860.63 68.83
-2 -1 8 858.28 69
2 1 9 6.56 2.35
2 -1 9 8.73 2.4
-2 1 9 7.88 2.95
-2 -1 -9 8.87 2.6
2 1 9 9.77 2.2
-2 -1 9 7.78 1.5
2 -1 9 8.39 1.37
2 1 9 7.99 2.73
-2 1 -9 10.67 2.66
-2 -1 9 9.48 1.71
2 1 -9 7.64 1.8
2 1 9 7.47 1.86
-2 1 -9 12.38 2.45
-2 -1 9 9.53 1.86
2 -1 9 10.9 2.35
-2 -1 -9 15.42 3.38
-2 1 -9 10.95 2.4
-2 1 -9 12.85 2.54
2 1 9 10.31 1.36
2 1 9 13.77 2.12
-2 -1 -9 11.9 1.8
2 -1 -9 7.35 1.57
2 1 -9 8.14 1.9
2 -1 9 13.51 2.33
2 -1 -9 8.82 1.86
2 -1 9 12.22 1.84
-2 -1 -9 8.78 1.96
-2 -1 -9 13.74 2.28
-2 -1 9 9.16 2.04
2 -1 -9 7.43 1.66
2 -1 -9 6.71 1.99
2 1 -9 9.3 1.93
-2 1 -9 9.47 1.61
2 1 -9 2.96 1.67
2 1 9 9.67 1.09
2 -1 9 12.19 2.01
-2 -1 9 8.37 1.94
-2 1 9 8.82 1.6
2 -1 -9 8.17 1.68
-2 -1 -9 7.72 2.4
-2 1 9 7.94 1.57
-2 1 9 8.53 0.99
2 1 10 684.01 48.05
-2 -1 10 626.8 46.08
2 -1 10 630.19 46.91
-2 1 -10 627.27 46.79
-2 -1 -10 635.43 47.06
2 1 10 623.12 45.41
2 -1 -10 642.7 46.29
-2 -1 10 729.43 47.58
2 -1 10 651.41 47
2 -1 10 641.59 46.34
-2 -1 -10 651.96 46.66
-2 -1 -10 614.53 47.79
2 -1 -10 607.22 46.59
-2 1 10 612.95 46.43
-2 1 -10 651.04 46.87
-2 -1 -10 618.71 46.2
-2 1 -10 634.28 46.08
-2 1 10 627.57 47.09
-2 -1 -10 618.66 46.4
2 1 10 670.4 47.17
2 1 10 627.19 46.52
-2 -1 10 657.91 46.56
-2 -1 -10 665.84 47.33
2 -1 10 604.68 46.57
2 1 -10 616.74 46.69
-2 1 10 643.98 46.12
2 1 -10 607.89 46.26
-2 1 10 686.46 46.16
2 1 -10 683.02 47.08
2 -1 10 611.87 46.14
2 1 10 621.64 46.42
-2 1 10 590.09 48.04
2 1 -10 543.36 46.46
2 -1 -10 578.27 46.1
2 1 -10 626.97 46.37
2 -1 -10 630.82 46.17
2 1 10 631.52 45.58
-2 -1 10 573.11 46.25
2 -1 -10 606.32 46.05
2 -1 10 613.27 45.84
2 1 10 616.96 46.95
-2 1 -10 601.42 47.31
-2 1 -10 621.84 47.21
-2 -1 10 597.1 46.25
-2 -1 10 622.39 45.89
-2 1 10 574.26 45.38
2 1 11 7.81 2.51
-2 1 11 10.01 2.48
-2 -1 11 9.21 2.06
2 -1 11 10.8 1.76
-2 -1 -11 8.63 2.35
2 1 11 11.16 3.11
-2 -1 -11 9.14 1.91
-2 -1 11 10.95 1.84
2 1 11 9.8 2.17
-2 1 -11 7.25 2.4
-2 -1 11 8.94 1.99
-2 -1 11 16.61 3.25
-2 -1 11 9.45 1.73
-2 -1 -11 6.78 2.24
-2 -1 -11 15.71 3.42
-2 1 -11 9.53 2.25
-2 1 11 7.82 2.14
-2 1 11 9.13 1.77
2 -1 11 10.47 2.45
2 1 11 7.88 2.01
-2 -1 -11 10.28 2.18
2 1 11 13.57 2.68
2 -1 11 11.76 2.53
-2 1 11 7.09 3.36
2 1 -11 14.39 2.25
-2 1 -11 8.88 2.17
2 -1 11 11.01 1.9
-2 -1 11 7.76 1.85
-2 1 11 11.73 1.92
2 -1 -11 7.54 2.15
2 -1 -11 12 1.78
2 1 -11 9.49 2.18
2 -1 -11 10.32 1.95
2 -1 11 6.53 2.13
2 -1 -11 9.54 1.91
2 -1 11 9.71 2.2
2 1 11 11.92 1.25
2 1 -11 7.83 2.17
-2 1 -11 10.63 1.8
2 1 11 7.68 1.18
-2 -1 -11 11.79 2.28
2 -1 -11 8.97 1.84
2 1 -11 9.24 2.25
2 -1 11 9.51 1.99
-2 1 11 11.74 1.82
-2 -1 -12 30.25 3.68
2 1 -12 26.09 3.52
-2 -1 12 23.79 2.96
-2 1 12 23.26 2.89
2 -1 -12 18.81 2.77
2 1 12 31.4 4.81
2 1 -12 20.7 3.03
-2 -1 -12 33.88 4.25
-2 1 12 23.97 3.09
-2 -1 12 19.74 3.68
2 -1 12 33.04 3.08
-2 -1 -12 32.08 4.24
-2 -1 12 23.78 3.04
-2 -1 -12 27.16 4.46
2 1 12 27.8 3.36
-2 -1 -12 30.53 3.22
-2 1 -12 27.97 3.05
-2 1 -12 36.47 4.31
-2 1 12 24.8 3.28
-2 -1 12 27.42 3.44
2 1 12 28.48 3.47
2 -1 12 29.06 3.73
2 -1 12 32.27 3.94
-2 -1 12 25.68 3.03
-2 1 12 28.26 3.89
2 1 12 29.85 2.43
2 1 -12 29.28 3.79
-2 1 12 23.6 2.9
2 -1 -12 23.3 3.47
-2 1 12 20.68 4.56
-2 -1 -12 31.09 3.28
2 -1 12 32.06 3.13
2 -1 -12 23.1 2.91
2 -1 12 26.57 3.47
-2 -1 -12 28.6 3.62
2 -1 12 24.07 3.18
2 1 -12 25.27 3.41
-2 -1 12 20.67 2.91
2 -1 -12 25.68 3.24
2 1 12 26.17 3.83
2 1 12 32.83 2.49
2 -1 -12 21.91 2.91
-2 -1 -12 30.11 3.91
-2 1 -12 23.12 3.57
-2 1 12 23.14 2.86
-2 -1 12 23.98 3.21
2 -1 12 29.61 3.85
-2 1 -12 28.95 3.71
2 1 13 17.34 2.89
-2 -1 13 19.83 2.58
2 -1 13 14.5 2.54
-2 -1 -13 15.63 2.99
2 1 13 13.76 3.75
-2 -1 13 15.68 2.4
-2 1 -13 22.31 3.41
-2 1 13 14.49 4.25
2 -1 13 16.96 3.03
2 1 -13 8.94 2.73
-2 -1 13 20.69 3.64
-2 -1 13 13.81 2.6
-2 -1 -13 16.88 3.35
-2 -1 -13 12.41 3.45
-2 1 13 14.94 2.28
-2 1 -13 16.55 3.03
-2 -1 -13 13.59 3.25
-2 -1 13 14.53 2.5
-2 1 13 13.58 2.45
2 -1 -13 9.6 2.35
-2 1 -13 13.46 2.82
2 -1 13 13.91 3.15
2 1 13 16.51 2.75
-2 -1 -13 16.92 2.63
2 -1 13 12.34 2.26
-2 1 -13 19.96 2.55
2 -1 -13 19.22 2.33
-2 1 13 11.73 2.92
2 -1 -13 15.63 2.98
2 -1 13 17.66 2.36
-2 1 13 15.57 2.29
2 1 -13 14.93 2.58
-2 -1 13 14.03 2.29
2 1 13 20.66 2.71
2 1 -13 14.12 2.78
2 1 13 14.87 3.16
2 -1 -13 19.25 2.47
2 -1 13 17.09 2.86
-2 -1 -13 17.07 3.26
2 1 -13 16.84 2.88
2 -1 -13 19.1 2.47
-2 -1 -13 15.39 2.95
2 -1 13 12.91 2.93
-2 -1 13 15.36 2.8
-2 1 13 15.62 2.66
-2 -1 -13 16.1 2.64
2 1 14 2384.19 163.68
-2 1 14 2303.76 164.51
2 -1 14 2242.03 164.03
-2 -1 -14 2445.13 165.07
-2 -1 -14 2205.82 165.37
2 1 14 2755.45 163.74
-2 -1 -14 2429.1 164.76
-2 -1 14 2318.56 163.49
-2 -1 14 2074.35 164.33
2 1 -14 2214.42 164.45
-2 1 14 2420.54 163.39
2 -1 -14 2151.73 164.36
2 1 14 2176.71 165.68
-2 -1 14 2251.34 163.7
2 1 14 2344.73 164.66
2 -1 14 1547.91 164.47
-2 -1 -14 2321.54 163.72
-2 1 -14 2239.15 163.47
-2 -1 14 2267.53 164.08
2 -1 -14 2304.03 163.3
2 1 14 2247.45 164.04
2 -1 14 2153.98 163.73
2 1 14 2213.58 163.96
2 -1 -14 2371.19 163.98
2 -1 14 2191.28 164.5
-2 1 -14 2128.88 164.82
-2 -1 14 2261.1 163.71
2 -1 14 2115.96 163.93
2 -1 14 2088.12 164.32
-2 -1 14 2086.14 163.63
-2 1 14 2319.74 164.04
-2 1 14 2273.21 163.59
-2 1 14 2284.16 163.48
-2 1 14 2105.17 165.92
-2 -1 -14 2125.14 164.5
-2 -1 14 2044.99 163.36
2 -1 14 2058.3 163.21
-2 -1 -14 2248.23 164.29
-2 -1 -14 2165.32 163.54
2 1 -14 2177.17 163.93
-2 1 -14 2129.76 164.22
2 -1 -14 2137.48 163.27
-2 1 14 2362.07 163.33
2 1 -14 2277.72 163.81
2 -1 -14 2218.2 163.39
2 1 -14 2242.64 164.45
-2 1 -14 2235.83 164.19
-2 -1 -14 2345.89 164.36
2 1 15 15.93 2.5
-2 1 15 14.1 2.71
-2 1 15 24.02 3.57
-2 1 15 14.28 2.23
2 1 -15 10.86 2.75
-2 -1 15 17.25 2.76
-2 1 -15 12.22 3.07
2 1 -15 18.33 2.75
2 1 -15 18.5 2.51
-2 -1 -15 11.35 2.76
-2 -1 15 16.87 3.23
-2 -1 -15 12.93 3.05
2 -1 -15 14.7 2.12
2 -1 15 12.59 2.51
-2 1 -15 13.8 2.77
-2 -1 15 16.05 2.41
2 -1 15 12.8 3.6
2 -1 15 10.46 2.92
2 1 15 13.9 2.75
-2 1 15 12.16 2.33
2 -1 -15 12.76 2.57
2 1 15 8.06 3.5
-2 -1 -15 20.36 3.26
-2 -1 -15 15.22 2.59
-2 1 -15 13.29 2.36
2 1 -15 18.26 3.3
-2 -1 15 17.35 2.94
-2 1 15 16.74 4.33
2 -1 -15 18.03 3.2
-2 -1 15 19.92 2.39
-2 -1 -15 18.36 2.47
2 -1 15 14.15 2.12
2 -1 15 12.55 2.68
-2 -1 -15 12.05 3.19
2 -1 -15 17.27 2.34
2 1 -15 16.59 2.83
-2 1 15 14.47 2.12
2 -1 15 14.8 2.77
2 1 15 12.09 2.55
-2 -1 15 15.53 2.46
2 -1 -15 17.61 2.26
2 1 16 331.01 23.78
-2 1 16 310.84 24.61
2 1 16 315.82 26.07
-2 -1 -16 306.85 24.93
-2 -1 -16 315.71 24.51
-2 1 -16 302.24 24.16
-2 1 16 319.86 23.38
2 -1 16 292.08 23.2
-2 -1 16 271.16 24.18
-2 1 16 307.14 23.67
2 -1 -16 303.05 24.6
-2 -1 16 338 23.65
-2 -1 16 314.71 23.87
-2 -1 -16 316.87 23.53
-2 1 16 321.79 24.2
2 -1 -16 212.35 24.44
2 -1 16 186.58 24.19
-2 1 -16 307.62 23.58
2 1 16 331.35 24.22
-2 -1 -16 277.91 24.33
2 1 16 325.91 24.28
2 -1 16 299.41 23.89
-2 -1 16 327.18 24.11
2 -1 -16 328.49 24.25
2 -1 -16 290.5 23.23
-2 -1 16 278.26 23.29
2 1 -16 319.01 24.75
-2 1 16 342.02 23.44
-2 1 -16 309.7 25.12
2 1 -16 308.17 24
2 -1 -16 318.07 23.3
2 1 -16 316.55 23.92
2 -1 -16 306.91 23.39
2 1 -16 337.13 24.83
-2 1 16 321.36 26.5
-2 -1 -16 314.08 24.48
-2 1 17 37.73 5.4
-2 -1 -17 44.74 4.41
-2 -1 17 39.09 5.02
-2 1 17 37.4 6.91
-2 -1 17 46.38 4.86
-2 1 17 39.57 5
-2 1 -17 53.3 4.77
-2 -1 -17 42.89 5.37
2 -1 17 26.82 5.17
2 1 17 50.68 5.32
2 -1 17 43.89 4.85
2 -1 -17 42.85 4.35
-2 1 17 42.86 4.68
2 1 17 41.03 4.92
-2 1 -17 44.61 5.84
-2 -1 -17 49.11 5.91
2 1 -17 41.14 5.42
2 1 17 52.32 4.93
-2 1 17 42.05 4.31
-2 1 17 46.34 4.37
-2 -1 17 39.04 4.44
2 -1 -17 51.06 4.36
-2 -1 -17 46.79 3.99
2 -1 -17 46.75 5.15
-2 -1 17 42.97 4.86
-2 -1 17 42.52 5.39
2 1 -17 48.29 5.07
2 -1 -17 32.56 5.16
2 1 -17 55.44 5.14
2 1 17 40.95 6.76
-2 -1 -17 50.18 5.48
-2 1 -17 42.22 5.17
2 -1 -17 40.17 4.21
2 1 -17 39.17 5.45
2 1 18 656.27 54.85
2 -1 -18 625.26 53.27
-2 -1 18 704.12 52.55
-2 1 18 735.42 52.96
-2 1 -18 717.25 52.35
-2 1 18 692.82 52.42
2 -1 -18 735.76 53.11
-2 1 -18 642.07 53.8
2 1 18 719.9 53.01
2 -1 18 693.57 52.66
-2 1 18 678.25 53.36
2 1 18 696.3 52.85
-2 -1 -18 722.13 53.44
-2 -1 -18 683.28 53.78
-2 -1 18 701.45 52.94
-2 1 18 610.18 54.82
2 1 18 712.01 52.44
-2 -1 18 710.86 52.58
2 -1 -18 728.6 51.95
2 1 -18 687.38 52.68
2 1 -18 724.99 52.67
-2 1 -18 717.47 52.98
2 1 -18 677.98 53.45
2 1 -18 655.58 53.44
-2 -1 -18 728.54 53.34
-2 1 19 0.3 1.89
-2 -1 19 5.82 1.7
2 1 19 -2.28 2.53
-2 1 19 0.99 2.15
2 1 -19 2.68 1.71
2 -1 19 7.01 2.07
2 1 19 -0.82 2.92
-2 1 -19 -0.77 1.95
2 -1 -19 -1.28 2
-2 1 -19 3.72 2.53
-2 -1 -19 1.47 2.09
2 1 -19 -2.68 2.57
2 1 19 5.98 2.13
-2 -1 -19 -0.58 1.99
-2 1 19 0.86 3.35
2 -1 -19 -0.52 1.91
-2 -1 19 1.27 1.57
2 1 -19 2.45 1.79
-2 1 19 5.71 2.01
2 1 -19 0.51 1.88
2 1 20 177.84 17.08
-2 1 -20 177.63 14.68
-2 -1 -20 189.54 15.9
2 1 -20 156.92 15.2
2 -1 20 173.93 14.52
2 -1 -20 145.1 15.02
-2 1 -20 171.98 15.8
-2 -1 20 176.6 14.37
-2 1 20 184.99 14.83
2 1 20 168.16 14.7
2 1 -20 170.78 15.35
-2 -1 -20 164.48 15.08
-2 1 20 148.51 16.66
2 1 -20 171.83 14.47
-2 1 20 170.63 15.27
2 1 -20 193.71 14.59
2 -1 -20 171.91 14.91
-2 1 -21 65.26 6.69
-2 1 21 65.25 7.47
2 1 21 50.79 8.5
2 1 -21 62.15 7.39
2 -1 -21 65.32 7.37
-2 -1 21 53.72 6.21
-2 1 21 72.76 6.95
2 1 21 70.52 6.93
2 -1 21 61.7 6.54
2 1 -21 62.66 6.48
-2 -1 -21 57.23 7.07
-2 1 -21 53.57 7.33
2 1 -21 62.27 7.31
-2 -1 -21 60.79 7.54
2 -1 -21 64.91 6.99
2 1 -21 62.22 6.48
-2 1 21 56.13 8.73
-2 -1 -22 28.69 4.82
2 1 22 22.23 5.97
2 1 -22 28.97 4.89
2 -1 -22 25.67 4.38
-2 1 22 23.92 4.71
-2 -1 22 23.02 3.74
-2 -1 -22 25.21 4.63
2 1 -22 17.49 4.2
2 -1 22 23.19 3.86
2 1 -22 33.89 4.18
2 -1 -22 29.12 4.94
-2 1 -22 27.95 4.23
-2 1 22 33.72 4.41
2 1 22 25.18 4.05
2 1 -22 29.94 4.07
-2 1 22 36.91 6.69
-2 1 -22 26.88 4.93
-2 1 23 59.41 8.8
-2 -1 -23 36.67 5.62
-2 1 23 29.33 5.63
2 -1 23 27.26 4.7
2 1 23 35.47 7.21
2 -1 -23 42.12 5.78
-2 1 23 49.93 5.58
2 1 23 40.65 5.19
2 1 -23 36.37 5.88
-2 -1 23 36.03 4.78
-2 -1 -23 36.04 5.83
2 -1 -23 36.86 5.7
2 1 -23 38.04 5.81
-2 1 -23 30.23 5.67
2 1 -23 37.04 4.73
2 1 -23 42.95 4.94
-2 1 -23 47.83 5.28
-2 1 24 63.16 9.25
2 1 24 60.63 10.92
-2 -1 -24 94.65 10.14
2 1 -24 81.13 8.44
2 1 -24 74.95 9.42
2 -1 -24 106.05 9.73
2 -1 -24 65.78 9.22
-2 -1 24 88.34 8.52
-2 1 -24 75.18 9.74
2 1 24 106.19 9.34
2 -1 24 85.3 8.64
-2 -1 -24 98.25 9.68
2 1 -24 87.51 9.72
-2 1 24 85.83 8.78
-2 1 24 87.64 11.47
-2 1 -24 109.24 9.12
2 1 -24 108.82 8.81
-2 1 -25 3.87 2.96
2 1 -25 5.74 2.38
-2 1 25 7.01 3.9
-2 -1 -25 8.79 3.4
2 -1 -25 3.65 2.77
-2 1 -25 -0.8 3.34
-2 -1 -25 2.63 2.7
-2 1 25 2.16 4.08
2 -1 -25 1.39 2.63
2 1 -25 6.55 3.56
-2 1 25 8.78 3.02
2 -1 25 2.29 2.32
2 1 25 3.63 2.67
-2 1 -25 5.86 2.55
2 1 -25 6.11 3.21
-2 -1 25 1.27 2.36
-2 -1 -26 112.78 11.65
2 1 -26 118.04 12.21
2 -1 -26 100.25 11.49
2 -1 -26 118.7 11.7
-2 1 26 107.98 10.78
-2 -1 26 124.71 10.82
2 1 26 120.31 11.09
2 -1 26 109.9 10.6
-2 -1 -26 106.32 11.78
-2 1 26 93.75 13.32
2 1 -26 144.29 10.93
-2 1 -26 82.76 11.29
-2 1 -26 141.74 11.14
2 1 -26 108.57 11.79
-2 1 -26 83.79 10.55
2 1 -27 152.47 16.87
2 -1 -27 197.73 17.18
-2 1 -27 208.95 16.4
2 1 -27 205.9 16.09
2 1 -27 181.64 17.44
2 -1 -27 195.84 17.64
-2 1 27 206.2 16.65
-2 -1 27 201.11 16.24
2 1 27 182.11 16.45
2 -1 27 191.88 16.22
-2 -1 -27 174.18 16.96
-2 1 -27 193.09 17.93
-2 -1 -27 192.68 17.67
-2 1 27 155.58 18.63
-2 1 -27 149.31 16.24
2 -1 -28 27.29 5.47
2 1 -28 25.61 5.71
2 -1 28 28.24 4.66
2 1 -28 31.86 4.65
-2 1 28 21.4 6.56
-2 1 -28 36.3 4.99
-2 1 -28 16 5.2
2 -1 -28 26.22 5.27
-2 -1 -28 20.35 5.2
-2 1 -28 30.28 4.98
-2 1 28 24 4.44
2 1 28 38.94 5.37
-2 -1 -28 25.36 5.47
-2 -1 28 27.16 4.7
2 1 -28 28.46 5.57
-2 1 29 67.09 11.49
-2 -1 -29 67.45 9.48
2 -1 -29 80.9 9.94
-2 1 29 78.55 8.95
-2 -1 29 123.13 9.61
2 -1 -29 92.79 10.11
2 1 29 65.62 8.62
2 -1 29 81.96 8.72
-2 1 -29 75.58 10.37
-2 1 -29 86.13 8.67
2 1 -29 97.83 10.92
2 1 -29 79.48 9.96
2 1 -29 101.1 8.88
-2 -1 -29 65.6 9.54
-2 1 -29 73.14 8.93
-2 1 -30 7.65 3.3
-2 -1 -30 8.68 3.98
-2 1 -30 7.08 2.83
2 1 -30 8.96 3.19
2 -1 -30 5.4 3.74
2 1 -30 4.48 3.78
2 1 30 8.1 3.55
-2 1 30 11.65 3.44
-2 -1 30 5.62 3.1
-2 1 -30 11.43 4.83
-2 -1 -30 -0.8 4.21
2 -1 -30 9.22 4.05
2 -1 30 16.87 3.75
-2 1 30 7.54 5.61
-2 1 -31 -1.3 2.84
2 1 -31 1.46 2.21
2 1 -31 -3.74 3.62
-2 1 -31 0.51 2.19
2 -1 -31 -0.8 3.34
-2 -1 -31 -0.9 3.09
-2 -1 31 -6.85 3.69
-2 1 -31 -5.9 5.1
2 1 31 -0.65 2.9
2 -1 -31 0.87 3.08
2 -1 31 -4.08 3.55
-2 1 31 -3.61 3.6
-2 -1 -31 -5 4.39
-2 1 -32 10 3.54
2 1 -32 8.89 2.96
-2 1 -32 9.44 2.99
2 1 32 5.39 3.37
-2 -1 -32 9.24 4.06
2 1 -32 3.86 3.67
2 -1 -32 5.84 3.52
-2 1 32 6.82 3.21
-2 -1 32 3.81 2.75
-2 1 -32 13.19 4.45
2 -1 32 5.42 3.12
-2 1 32 1.33 5.04
2 -1 -32 7.15 3.59
-2 1 -32 9.45 4.07
-2 -1 -33 0.95 3.05
-2 1 -33 2.05 2.51
-2 1 -33 -2.67 3.16
2 1 -33 -0.51 2.39
-2 1 -33 3.71 2.67
-2 1 -33 -4.18 3.83
-2 1 33 2.73 4.85
2 1 33 -1.39 2.96
2 1 -33 4.01 3.56
-2 -1 33 0.56 2.51
2 -1 33 -1.24 3.03
2 -1 -33 2.77 3.39
-2 1 33 1.28 2.73
-2 1 -34 12.36 4.06
-2 -1 -34 6.85 4
2 1 -34 18.76 3.88
2 1 34 15.04 4.23
-2 1 -34 7.5 3.15
2 1 -34 16.52 5.03
-2 1 34 12.6 6.29
-2 1 34 14.52 3.96
-2 1 -34 9.69 4.58
-2 -1 34 8.73 3.36
2 -1 34 16.03 3.89
-2 1 -34 19.26 5.11
2 -1 -34 16.19 4.73
-2 -1 -35 11.07 4.57
-2 1 -35 4.38 2.94
2 1 -35 7.46 2.9
-2 -1 35 2.4 2.99
-2 1 -35 7.57 4.38
-2 1 -35 3.32 4.3
-2 1 35 2.04 3.21
2 1 -35 -3.19 4.02
-2 1 35 7.13 5.39
2 -1 -35 3.91 3.9
2 1 35 6.63 3.42
2 -1 35 1.98 2.83
-2 1 -35 4.22 3.26
2 -1 36 102.74 11.2
-2 1 -36 112.11 12.69
2 -1 -36 114.67 13.01
-2 1 36 88.06 11.04
-2 -1 36 90.5 10.72
2 1 36 119.81 11.92
-2 -1 -36 113.71 13.02
2 1 -36 120.17 10.86
-2 1 -36 96.72 13.07
-2 1 36 89.04 14.19
-2 1 -36 123.39 11.04
2 1 -36 85.73 12.51
-2 1 -36 103 11.28
-2 1 -37 35.31 5.74
2 1 -37 25.74 4.75
-2 1 -37 12.02 5.02
-2 1 -37 12.85 5.38
2 -1 -37 25.86 6.21
-2 -1 37 25.51 5.02
-2 1 37 33.86 5.81
2 1 37 28.06 5.64
2 -1 37 24.05 5.17
-2 -1 -37 16.98 5.85
-2 1 37 16.44 7.48
-2 1 -37 29.82 4.85
2 1 -37 22.59 6.02
2 -1 38 106.14 11.91
2 1 -38 105.79 13.8
-2 -1 -38 100.08 13.01
-2 1 -38 113.23 13.33
2 -1 -38 125.35 13.99
-2 1 38 119.8 12.41
2 1 38 110.2 12.41
-2 -1 38 110.27 11.76
-2 1 38 90.07 15.32
2 1 -38 103.89 11.06
-2 1 -38 131.52 11.61
-2 1 -38 95.89 13.71
-2 1 -38 120.45 12.12
-2 1 -39 22.05 4.93
-2 -1 -39 11.15 5.08
-2 -1 39 17.52 4.46
2 1 -39 1.19 4.63
-2 1 -39 7.37 5.35
-2 1 39 15.95 4.99
2 -1 39 16.41 4.54
-2 1 -39 11.63 4.74
-2 1 39 18.57 7.1
2 -1 -39 18.44 5.57
2 1 39 15.79 4.8
2 1 -39 28.02 4.74
2 1 -40 190.36 16.02
-2 1 -40 161.16 17.74
2 -1 -40 155.63 17.88
-2 1 40 194.69 17.26
-2 -1 40 165.69 16.29
2 1 40 150.74 16.72
2 -1 40 162.12 16.54
2 1 -40 186.83 19.21
-2 1 40 138.93 20.02
-2 -1 -40 157.4 18.24
-2 1 -40 192.44 19.42
-2 1 -40 187.94 16.76
2 1 -41 21.3 4.5
2 -1 -41 13.65 5.41
2 1 -41 6.27 5.4
-2 1 -41 10.28 5.88
-2 -1 41 7.85 4.24
2 -1 41 7.05 4.02
-2 1 41 12.88 7.48
2 1 41 5.23 4.03
-2 1 -41 13.3 5.37
-2 -1 -41 16.28 5.81
-2 1 41 13.55 4.87
2 -1 -42 91.94 13.47
-2 1 -42 124.74 14.47
-2 1 42 119.83 13.25
-2 1 42 103.22 16.67
2 1 42 129.22 13.68
2 1 -42 129.72 12.23
2 1 -42 102.5 14.39
-2 1 -42 110.3 14.76
-2 -1 -42 130.62 15.07
-2 1 -43 4.62 4.12
-3 -1 0 961.61 66.99
-3 -1 0 1017.35 67.41
3 1 0 825.65 67.29
3 -1 0 836.61 67.19
-3 1 0 906.79 67.08
3 1 0 857.54 67.08
3 -1 0 793.93 66.92
3 1 0 1162.19 67.72
-3 -1 0 846.4 67.24
-3 -1 0 808.03 67.86
3 1 0 903.54 67.85
3 1 0 933.53 66.64
-3 1 0 829.79 67.19
-3 1 0 1074.62 67.09
3 -1 0 864.63 67.46
-3 1 0 878.72 66.54
3 1 0 878.04 66.18
3 -1 0 1036.15 66.79
3 -1 0 935.74 66.8
3 1 0 842.1 67.38
-3 -1 0 976.48 66.3
-3 1 0 791.46 67.13
3 -1 0 815.72 66.85
-3 1 1 338.78 27.35
-3 -1 -1 420.61 28.02
3 1 -1 440.48 28.23
-3 -1 -1 377.44 28.21
3 1 -1 351.08 28.04
-3 -1 1 391.49 28.18
-3 1 -1 315.59 27.99
-3 -1 1 349.13 27.55
-3 -1 1 311.73 27.85
3 1 1 351.28 26.91
-3 1 -1 366.13 27.92
3 1 1 355.53 27.99
-3 1 1 358.75 27.79
3 -1 1 318.45 27.71
-3 1 -1 336.81 27.31
3 -1 1 344.4 28.24
3 1 -1 335.07 27.77
3 -1 1 333.76 28.62
3 1 1 347.99 28.24
-3 1 -1 370.87 28.04
3 -1 1 339.87 28.02
3 1 -1 346.99 28.19
-3 -1 1 327.03 29.04
3 1 1 315.23 28.85
3 1 -1 366.77 28.65
-3 -1 -1 308.23 28.8
-3 1 1 426.7 27.72
3 -1 -1 336.73 28.33
3 1 1 339.19 27.36
3 1 -1 383.3 27.12
3 -1 1 457.15 27.86
3 1 -1 415.44 27.62
-3 1 1 395 28.1
-3 1 1 346.5 28.21
3 1 1 458.72 28.67
3 -1 -1 368.83 27.5
3 -1 1 398.83 27.75
-3 1 -1 441.1 27.94
-3 -1 -1 381.82 28.15
3 -1 1 327.34 27.74
3 -1 -1 327.81 27.81
3 -1 -1 384.09 27.38
-3 -1 1 415.03 27.23
-3 -1 -1 360.67 26.99
3 1 1 337.82 28.19
-3 -1 1 362.45 28.08
-3 -1 2 579.48 45.3
3 1 -2 777.65 45.93
-3 -1 -2 598.47 46
3 1 2 862.61 47.04
3 1 2 599.98 46.08
-3 -1 2 574.16 45.71
-3 1 -2 594.97 45.62
3 1 -2 600.99 45.59
-3 1 2 743.77 45.47
-3 1 2 627.1 45.73
-3 -1 2 521.79 45.63
3 -1 2 555.14 45.62
-3 -1 2 728.09 46.12
-3 1 2 674.3 45.62
3 1 2 552.91 46.72
-3 -1 -2 711.86 45.99
3 -1 2 528.18 46.28
3 1 -2 727.02 45.41
3 -1 2 539.44 45.85
-3 -1 -2 561.11 46.84
3 1 -2 619.38 46.44
3 -1 -2 650.82 45.25
3 1 2 569.51 45.07
3 -1 -2 581.23 46.38
3 1 2 594.15 45.91
3 -1 2 578.15 45.65
3 -1 2 734.95 45.68
-3 1 2 649.27 46.46
3 1 -2 574.03 46.23
-3 1 2 543.85 45.1
-3 1 -2 543.33 45.06
3 1 -2 565.46 45.69
-3 1 -2 613.78 45.8
3 -1 2 609.14 45.92
-3 -1 -2 661.6 46.01
3 1 2 537.65 44.61
3 1 2 556.77 45.63
3 1 -2 652.67 45.01
-3 1 -2 732.24 45.93
-3 1 -2 520.77 45.94
3 -1 -2 557.25 45.61
3 -1 -2 628.42 45.02
-3 1 2 624.39 45.28
-3 -1 2 660.21 45.06
3 -1 2 706.61 45.71
-3 -1 -2 593.3 44.7
3 1 -3 275.98 17.08
3 1 3 297.02 18.33
3 -1 -3 206.95 17.01
3 1 3 234.94 17.59
3 1 -3 228.17 17.23
-3 -1 -3 254.57 17.42
3 -1 3 197.11 16.42
-3 -1 3 244.47 16.53
3 1 -3 254.32 18.25
-3 -1 3 217.1 17.06
3 1 3 201.04 16.09
3 -1 3 261.57 17.06
3 1 3 253.59 17.41
3 -1 3 206.1 17.09
-3 -1 3 207.04 17.05
-3 1 3 255.86 16.96
3 -1 3 202.99 17.6
3 -1 -3 197.69 16.15
3 -1 -3 230.59 17.94
3 -1 3 213.74 17.12
3 1 3 195.66 16.91
-3 -1 -3 197.91 18.28
-3 1 -3 191.37 16.75
-3 -1 3 213.52 16.55
-3 1 -3 254.27 17.19
-3 1 3 274.35 16.75
3 -1 3 225.39 17.38
-3 1 3 233.6 17.11
3 1 -3 270.29 16.85
-3 -1 -3 225.6 17.49
-3 -1 -3 250.3 17.42
3 1 3 183.15 15.85
-3 1 -3 212.72 17.34
3 -1 -3 222.7 16.49
-3 1 3 209 16.52
3 1 -3 198.19 16.84
3 1 -3 236.78 16.43
-3 1 3 245.24 16.99
3 -1 3 201.21 17.04
-3 1 -3 204.24 16.42
3 -1 -3 200.99 16.2
3 -1 3 253.56 17.15
-3 -1 -3 190.72 15.92
3 1 -3 219.96 17.63
-3 1 3 231.15 17.89
-3 1 -4 147.15 12.72
-3 -1 -4 194.15 13.3
3 1 4 209.25 14.19
3 1 4 154.93 13.25
-3 -1 4 152.93 12.69
-3 1 -4 139.91 12.08
3 1 -4 142.68 12.57
3 -1 4 147.55 12.08
3 1 -4 144.87 12.58
3 -1 -4 151.08 12.03
3 1 -4 223.63 12.75
-3 1 4 177.91 12.82
3 -1 4 149.39 12.8
-3 -1 4 170.53 12.64
3 -1 4 145.28 13.22
3 1 4 136.25 13.48
3 -1 4 148.71 12.71
3 1 -4 164.48 13.48
3 1 -4 178.7 13.43
-3 1 -4 146 11.72
-3 -1 -4 131.35 12.55
-3 -1 -4 161.98 14.34
3 -1 -4 183.14 13.88
3 -1 4 141.88 12.9
3 1 -4 170.32 12.16
-3 1 4 147.98 13.47
3 1 4 138.07 11.69
-3 1 4 175.35 12.2
-3 -1 -4 170.04 13.01
-3 1 -4 141.57 13.03
3 -1 4 186.64 12.82
-3 1 -4 212.39 13.22
-3 -1 -4 178.6 13.39
3 1 -4 210.24 12.7
-3 1 4 146.53 12.62
-3 1 4 181.72 12.67
3 -1 -4 128.32 11.73
-3 -1 4 155.43 12.15
3 -1 4 190.5 13.05
3 1 -4 140.45 12.25
3 1 4 139.32 12.71
-3 1 -4 147.08 12.43
-3 1 4 159.5 11.74
-3 -1 -5 50.88 4.94
3 1 5 68.74 6.04
-3 1 -5 34.78 3.91
-3 -1 5 41.73 4.65
3 1 -5 47 4.61
3 -1 5 34.74 3.87
3 1 5 39.81 4.42
3 1 -5 52.69 5.24
3 1 5 36.81 3.46
3 -1 5 47.3 4.66
3 1 5 40.61 5.04
-3 -1 5 35.83 4.48
3 -1 5 33.54 4.72
3 1 5 27.46 5
3 -1 5 45.04 4.53
-3 1 -5 38.97 3.71
-3 1 -5 31.59 4.91
-3 -1 -5 40.07 5.68
3 1 -5 70.27 5.75
-3 -1 -5 35.04 4.16
3 1 -5 46.98 4.4
-3 1 5 43.19 5.4
3 -1 -5 39.43 5.34
3 -1 -5 34.91 4.02
-3 -1 -5 30.97 4.73
3 -1 -5 50.61 4.52
3 1 -5 62.67 4.61
3 -1 5 50.9 4.87
-3 -1 5 52.19 4.21
-3 -1 -5 56.66 3.9
3 -1 5 51.97 4.7
-3 1 -5 56.15 4.92
3 -1 5 43.27 4.82
3 1 5 33.79 4.95
-3 -1 -5 36.74 4.5
3 1 -5 59.75 4.34
3 1 -5 48.1 4.57
3 -1 -5 37.61 3.76
-3 1 5 77.98 4.23
3 1 -5 58.33 4.34
-3 1 5 34.47 4.46
-3 1 5 43.37 4.42
-3 1 -5 30.69 4.32
-3 1 5 45.95 3.47
3 1 -6 85.13 6.42
3 1 6 78.97 7.67
-3 1 6 72.76 8.02
3 1 6 83.01 8.17
-3 -1 6 78.25 6.88
3 1 -6 65.15 6.76
-3 -1 -6 81.07 7.22
3 1 -6 61.21 6.5
3 1 -6 103.33 7.08
3 1 -6 92.68 7.74
-3 -1 6 87.06 6.82
-3 1 -6 68.79 6.69
-3 1 6 84.77 6.96
-3 1 -6 82.29 6.35
-3 1 -6 65.33 7.05
3 1 6 78.09 8
3 -1 -6 75.82 7.02
-3 -1 6 72.95 6.52
3 -1 6 73.48 6.72
3 1 -6 65.08 6.77
3 1 6 65.75 5.84
-3 -1 -6 76.54 6.79
3 -1 6 69.73 6.26
3 -1 6 72.33 7.44
3 1 6 81.81 7.06
-3 1 6 78.13 6.78
3 -1 -6 86.35 8.21
-3 1 -6 76.67 6.51
3 1 6 87.76 7.73
-3 -1 -6 90.94 6.19
3 -1 -6 70.81 6.51
3 -1 6 85.54 7.1
-3 1 6 88.18 6.27
-3 1 -6 74.47 7.08
3 1 -6 80.02 6.52
-3 -1 -6 80.15 7.44
-3 1 -6 73.49 7.51
3 -1 6 84.26 7.39
3 -1 6 90.42 7.25
-3 1 -6 79.06 7.2
3 1 -7 36.12 2.81
3 1 7 37.4 4.98
-3 -1 7 31.71 3.23
3 1 -7 26.9 3.35
3 1 7 27.43 3.97
-3 -1 -7 22.95 3.65
3 -1 7 20.67 2.63
3 -1 -7 22.25 3.29
3 1 7 15.51 3.6
-3 1 -7 23.9 3.43
-3 1 -7 27.78 2.76
3 -1 7 21.41 3.64
3 1 7 13.72 3.58
-3 -1 -7 21.63 3.04
-3 1 -7 17.95 2.91
3 1 -7 25.59 3.11
-3 1 7 18.77 2.84
-3 1 -7 20.43 3.67
-3 -1 -7 34.09 2.46
3 1 -7 39.36 3.42
-3 1 7 23.02 2.96
-3 1 7 31.55 4.6
3 -1 7 16.81 3
-3 1 7 38.51 2.6
3 1 -7 29.06 3.4
3 1 7 24.95 3.26
3 -1 7 36.76 3.63
-3 -1 -7 15.9 3.38
3 1 -7 32.19 3.1
-3 1 -7 15.77 2.72
-3 1 -7 17.94 3.24
-3 -1 7 32.51 3.17
3 -1 -7 23.89 2.85
3 -1 7 25.94 3.59
3 -1 -7 21.42 4.09
3 1 8 105.92 9.77
3 1 -8 108.72 8.26
-3 -1 -8 99.83 9.63
3 1 8 124.4 10.18
3 1 8 105.83 10.52
-3 -1 8 112.26 8.96
3 1 -8 95.74 8.87
3 -1 -8 97.43 8.65
-3 1 8 107.36 8.92
3 1 -8 89.46 8.84
3 -1 -8 112.22 8.91
3 1 -8 93.97 9.07
-3 -1 8 109.33 8.67
3 1 8 104.3 9.98
-3 1 -8 108.65 8.69
-3 1 -8 93.48 9.27
-3 1 -8 92.31 9.79
-3 -1 -8 105.45 8.99
-3 1 -8 105.59 8.85
3 -1 8 107.02 9.68
3 -1 8 119.46 9.87
-3 -1 -8 108.67 9.47
3 -1 -8 104.99 10.43
-3 1 8 115.13 8.88
3 1 8 102.27 9.16
3 1 8 108.94 9.71
-3 1 8 112.34 10.54
-3 -1 -8 117.05 8.12
-3 -1 8 95.16 8.68
3 1 -8 115.19 9.07
-3 1 -8 97.03 8.66
3 -1 -8 93.77 8.83
3 -1 8 111.68 8.78
3 -1 8 112.06 9.29
-3 1 8 102.06 8.11
3 1 -8 112.86 8.81
3 -1 -8 112.39 8.89
3 -1 8 103.47 8.51
-3 1 -8 115.98 9.5
-3 1 -8 95.28 9.46
3 1 -9 34.52 2.72
-3 -1 -9 43.36 4.73
3 -1 9 32.7 3.5
3 -1 9 31.96 3.14
-3 -1 9 31.62 3.42
3 1 -9 20.23 3.16
3 1 9 42.07 4.8
3 1 9 27.74 4.94
-3 1 -9 34.61 3.44
-3 -1 -9 44.4 2.65
3 1 -9 17.47 3.31
-3 1 -9 15.75 3.65
3 1 9 28.18 4.29
-3 1 -9 22.48 3.69
-3 -1 -9 26.29 4.73
3 1 9 25.16 3.87
-3 -1 -9 35.68 3.6
-3 1 -9 30.73 3.39
3 1 -9 36.35 3.74
3 -1 9 25.61 3.93
-3 1 -9 24.89 4.11
-3 1 9 22.54 3.17
-3 1 9 30.85 5
3 1 9 24.62 3.55
3 1 -9 16.24 3.31
3 -1 -9 27.67 3.35
-3 -1 -9 23.24 3.64
3 -1 9 38.55 3.95
-3 1 9 30.03 2.55
3 1 9 31.48 4.26
3 1 -9 23.78 3.21
-3 -1 9 21.89 3.49
-3 -1 9 30.3 3.25
3 -1 -9 29.31 3.34
3 -1 -9 34.05 5.09
-3 -1 9 23.23 3.21
-3 1 9 34.64 3.37
-3 1 -9 30.54 3.97
3 -1 9 36.99 4.45
3 -1 -9 34.11 3.46
-3 -1 -10 174.11 14.19
3 1 10 163.25 14.23
3 1 10 161.04 14.83
3 -1 10 172.99 12.77
-3 -1 10 178.85 13.14
3 1 10 137.77 12.11
3 1 -10 149.34 13.2
3 1 -10 176.69 13.31
-3 -1 -10 151.75 14.18
-3 1 -10 159.21 13.51
-3 1 -10 148.47 13.64
-3 -1 -10 162.69 13.64
3 1 10 154.7 13.35
3 1 -10 172.19 13.56
-3 -1 -10 159.56 13.12
-3 1 -10 160.09 12.98
-3 -1 10 166.33 13.43
3 -1 10 161.15 13.86
3 1 10 165.6 13.65
3 1 10 166.18 13.97
-3 -1 -10 188.87 12.1
-3 -1 10 176.68 12.95
3 1 -10 144.74 12.16
3 -1 -10 174.31 13.03
-3 1 10 155.38 12.95
3 1 -10 141.75 13.22
3 -1 10 150.48 13.32
3 1 -10 161.45 12.95
3 -1 -10 177.68 13.09
-3 1 10 180.59 15.2
3 -1 10 164.55 13.87
-3 1 -10 160.75 13.71
-3 -1 10 167.54 13.02
-3 1 10 168.76 12.92
3 1 10 174.37 14.2
3 -1 -10 154.92 13.09
-3 1 -10 156.81 14.04
-3 1 -11 201.04 16.68
-3 -1 -11 211.61 17.15
3 1 11 227.74 17.57
3 -1 11 210.6 15.73
3 1 11 178.06 17.62
3 -1 -11 223.92 15.92
-3 -1 -11 195.63 17.23
-3 1 -11 186.26 16.62
-3 1 11 200.27 15.89
-3 -1 -11 205.36 17.43
3 1 11 210.03 16.59
-3 -1 -11 214.15 16.16
-3 1 -11 215.61 17.25
-3 1 -11 204.44 15.97
3 -1 11 189.17 16.7
3 -1 11 212.67 16.9
3 1 11 184.79 16.3
-3 -1 -11 193.38 16.54
3 1 11 216.88 17.08
3 1 -11 226.87 16.35
3 1 -11 191.49 16.4
-3 -1 11 211.45 15.99
-3 -1 -11 226.73 14.94
3 1 -11 188.26 16.23
-3 -1 11 195.68 16.3
3 1 -11 164.45 16.02
3 -1 11 198.32 16.33
3 -1 -11 194.17 16.07
3 1 -11 202.72 15.93
-3 -1 11 209.52 15.9
-3 1 11 196.87 17.85
3 1 11 175.84 14.95
-3 -1 11 186.9 15.87
-3 1 11 215.67 15.88
3 1 11 201.43 17.01
3 -1 -11 209.29 15.89
-3 1 -12 55.05 6.4
-3 -1 -12 55.74 6.72
3 -1 12 64.66 5.72
3 1 12 60.21 7.95
-3 -1 12 77.23 6.15
-3 1 -12 75.32 7.32
-3 1 12 61.08 5.88
-3 -1 -12 75.34 7.47
-3 -1 12 77.27 6.1
3 1 -12 69.17 6.64
3 -1 12 63.63 6.44
-3 -1 12 60.93 6.38
3 -1 -12 62.27 6.11
-3 -1 -12 52.42 5.99
-3 1 -12 57.94 5.87
-3 1 12 52.1 7.56
3 1 -12 58.2 6.51
3 1 12 57.91 6.69
3 -1 -12 73.87 6.05
3 -1 12 63.23 6.87
-3 -1 -12 69.75 6.76
3 -1 12 62.69 6.41
3 1 -12 68.7 6.34
-3 -1 -12 56.6 7.08
3 1 -12 65.18 5.91
3 1 12 58.98 6.83
3 1 12 70.37 6.7
3 -1 12 67.91 6.95
3 -1 -12 76.57 5.94
-3 1 12 63.6 6.67
3 -1 12 74.17 6.09
3 1 12 62.89 6.45
3 1 -12 61.99 6.39
3 1 12 59.19 7.09
-3 1 -12 53.79 6.48
3 1 -12 57.84 6.49
-3 -1 12 56.06 5.89
-3 -1 -13 48.25 6.1
3 1 13 59.15 6.74
3 -1 13 56.96 5.09
3 1 -13 50.27 5.69
-3 -1 13 63.56 5.35
-3 1 13 47.2 5
-3 -1 13 43.51 5.49
3 1 13 46.7 7.1
3 -1 13 46.8 5.95
-3 -1 -13 49.77 6.39
-3 1 -13 50.28 5.83
-3 1 13 60.41 5.15
-3 -1 -13 53.34 5.28
3 -1 13 42.56 5.43
-3 1 -13 50.06 5.17
3 1 13 47.74 6.28
3 1 13 52.39 5.6
3 -1 -13 58.08 5.05
-3 -1 13 58.32 5.32
-3 -1 -13 46.52 6.17
-3 -1 -13 50.13 5.9
3 1 -13 55.84 5.2
3 -1 -13 55.53 5.14
-3 -1 13 47.43 5.19
3 1 -13 57.24 5.59
3 1 -13 49.64 5.71
-3 1 13 62.31 6.11
-3 1 13 52.35 7.28
3 -1 -13 56.72 5.47
-3 1 -13 67.58 6.82
3 1 -13 54.56 5.48
3 1 13 52.4 5.69
3 -1 13 59.56 5.13
-3 1 -13 43.04 5.68
3 1 13 50.75 6.11
3 -1 13 50.7 5.99
3 -1 13 42.34 5.35
3 -1 -14 136.18 9.42
3 1 14 92.43 11.19
-3 1 14 130.48 9.33
-3 1 14 96.98 9.78
3 1 14 103.2 10.52
3 -1 -14 108.7 9.54
-3 -1 -14 89.5 10.21
3 -1 14 110.43 9.09
-3 1 -14 110.56 9.92
-3 -1 -14 104.42 9.36
-3 1 -14 104.05 9.25
-3 -1 14 116.23 10.04
3 -1 14 91.74 10
-3 1 14 107.01 11.58
3 -1 -14 117.6 9.22
-3 -1 -14 114.02 10.49
3 1 -14 110.85 9.33
3 -1 14 80.3 9.46
3 -1 -14 129.36 9.28
-3 1 14 87.71 9.01
3 1 -14 114.76 10.11
-3 -1 -14 99.04 9.9
3 1 -14 120.52 9.75
3 -1 14 100.27 9.1
-3 1 -14 82.8 9.83
3 1 -14 103.88 9.88
-3 1 -14 98.88 10.5
3 1 14 95.77 9.58
-3 -1 14 135.31 9.71
-3 -1 14 147.89 9.69
3 1 14 102.09 9.71
3 1 15 371.59 28.55
-3 -1 -15 394.73 29.39
3 -1 15 383.24 28.46
3 1 -15 355.74 28.38
-3 -1 15 367.49 28.28
3 1 15 386.52 29.18
-3 -1 15 423.25 28.53
-3 -1 -15 367.49 29.88
-3 1 15 343.87 28.85
3 1 15 360.83 30.85
3 -1 -15 414.36 28.26
-3 1 -15 373.35 28.34
-3 1 15 373.62 28.46
3 -1 -15 360.4 28.76
3 1 -15 358.45 29.17
3 1 15 376.93 28.98
3 -1 15 364.73 29.01
-3 1 15 318.73 28.83
-3 1 15 340.46 30.65
-3 -1 -15 369.8 29.73
3 1 -15 351.37 29.08
3 -1 15 361.96 28.08
3 1 -15 332.54 28.51
-3 -1 -15 357.19 29.24
-3 1 15 368.31 28.2
-3 -1 15 396.78 28.69
-3 1 -15 393.02 30.06
-3 1 15 317.97 28.15
-3 1 -15 391.35 29.15
3 -1 -15 418.19 28.25
-3 1 16 518.71 46.1
-3 -1 -16 672.99 46.82
3 -1 16 649.07 45.86
3 1 16 509.68 47.82
3 1 -16 502.09 45.6
-3 1 16 612.98 48.43
-3 1 -16 624.55 47.33
-3 -1 -16 588.3 47.14
-3 -1 16 581.83 45.87
-3 1 16 626.87 46.4
3 1 -16 544.45 46.37
3 -1 -16 632.19 45.37
-3 1 -16 659.02 45.72
3 1 16 624.24 46.45
3 -1 16 614.35 46.31
3 1 16 617.59 46.32
-3 -1 16 630.74 46.01
-3 1 16 583.53 45.41
3 1 -16 633.45 45.8
3 -1 -16 635.49 45.39
-3 1 16 601.66 45.72
3 -1 16 607.7 45.31
-3 -1 -16 573.54 46.64
3 1 -16 550.97 46.3
-3 -1 16 703.18 45.83
-3 1 16 597.86 45.63
-3 1 -16 633.18 46.33
3 -1 -16 615.2 46.11
-3 -1 -16 644.1 47.33
-3 -1 16 596.78 45.47
3 -1 -17 41.28 4.84
-3 1 17 30.73 4.68
3 -1 17 29.78 4.14
3 -1 17 38.51 4.58
-3 -1 -17 27.09 5.13
3 1 17 21.65 5.79
-3 -1 -17 36.46 5.52
-3 -1 17 37.53 4.29
-3 -1 17 35.61 4.33
-3 1 17 44.8 4.92
3 -1 -17 44.78 4.05
-3 1 -17 31.35 3.9
3 1 17 34.93 4.61
3 1 17 33.3 4.74
-3 1 17 27.15 3.8
-3 1 -17 38.63 5.63
-3 -1 -17 29.81 4.78
3 -1 -17 38.65 3.89
-3 1 17 30.33 6.41
-3 -1 -17 36.65 4.12
-3 -1 17 44.8 4.8
-3 1 17 28.49 4.14
3 1 -17 38.74 5.18
3 1 -17 29.2 4.07
3 1 -17 28.29 4.26
3 1 -17 25.13 4.53
-3 1 -17 34.31 4.64
-3 1 18 259.84 22.63
-3 1 -18 241.38 22.51
3 1 18 220.56 24.19
-3 -1 18 332.37 22.24
-3 1 18 273.67 21.78
-3 -1 -18 260.13 23.41
-3 -1 18 301.02 22.43
-3 1 18 301.26 22.77
3 1 18 277.85 22.7
3 -1 -18 283.32 22.58
-3 -1 -18 317.58 23.87
-3 1 18 287.03 24.97
3 -1 -18 323.83 21.81
3 -1 18 302.72 22.63
3 1 -18 242.66 21.99
3 1 -18 276.31 22.08
-3 1 18 284.82 22.11
-3 1 -18 261.74 23.46
3 1 18 279.63 22.63
3 1 -18 254.72 22.71
3 1 -18 261.56 22.92
-3 -1 -18 280.8 23.09
-3 1 -18 287.36 22.56
-3 1 -19 18.73 3.57
-3 -1 19 21.06 3.13
-3 1 19 21.98 3.07
3 -1 19 22.71 3.44
3 1 -19 9.63 2.72
-3 1 -19 12.28 3.27
3 1 19 16.15 5.09
3 1 19 23.53 3.63
3 -1 -19 15.6 3.36
3 1 -19 18.84 3.87
-3 -1 -19 16.95 3.79
-3 1 19 18.41 3.72
-3 -1 -19 16.36 3.99
-3 1 19 20.25 3.51
3 1 -19 20.41 3.21
-3 1 -19 20.4 4.38
-3 -1 19 19.86 3.26
-3 1 19 13.26 5.14
3 1 -19 14.27 3.68
3 1 20 105.38 12.47
-3 -1 20 109.53 9.65
-3 1 20 125.6 10.17
3 1 20 106.62 9.92
3 -1 20 103.38 9.76
-3 1 -20 106.97 10.96
-3 -1 -20 93.29 10.15
3 1 -20 103.69 9.34
-3 1 20 81.57 11.5
3 1 -20 116.49 10.65
3 -1 -20 118.44 10.19
3 1 -20 101.86 9.39
-3 1 20 91.37 9.93
-3 -1 -20 119.55 11.06
3 1 -20 88.67 9.88
-3 1 -20 96.94 9.59
-3 1 -20 87.58 9.75
-3 1 21 22.1 4.65
3 1 21 38.2 5.17
-3 -1 -21 29.44 5.23
-3 1 -21 25.75 4.41
-3 1 -21 29.84 4.83
-3 1 -21 25.76 4.29
3 1 -21 29.57 4.08
-3 1 21 35.13 6.84
-3 1 21 33.44 4.69
3 1 -21 30.76 4.88
3 -1 21 27.88 4.39
-3 1 -21 30.69 5.37
3 1 -21 35.06 4.3
3 1 -21 23.2 4.73
3 -1 -21 31.83 4.71
-3 -1 21 29.79 4.24
-3 -1 -21 37.25 5.29
-3 1 -22 11.44 3.22
-3 1 22 15.62 3.77
3 1 -22 9.56 2.65
-3 -1 -22 10.18 3.77
-3 1 -22 8.98 3.03
-3 1 -22 6.56 3
3 1 -22 15.71 3.8
-3 1 22 16.12 3.41
-3 -1 22 8.01 2.88
-3 -1 -22 9.13 3.61
3 1 22 14.61 3.18
3 -1 22 12.1 3.35
-3 1 -22 17.81 4.36
3 -1 -22 10.91 3.31
3 1 -22 14.82 2.92
-3 1 22 11.89 4.82
3 1 -22 11.33 3.41
-3 1 -23 57.04 8.21
-3 -1 -23 50.17 7.59
-3 1 23 56.38 9.54
3 -1 -23 90.09 8.22
-3 1 -23 61.95 7.69
-3 -1 23 68.96 7.13
-3 1 23 77.41 7.69
-3 -1 -23 63.98 8.35
3 1 23 70.34 7.67
3 -1 23 70.53 7.51
-3 1 -23 62.27 7.12
3 1 -23 63.43 7.94
3 1 -23 66.84 6.94
3 1 -23 54.11 7.58
-3 1 -23 71.62 7.79
-3 -1 -24 33.84 5.66
-3 1 -24 34.51 5.1
-3 1 24 22.24 6.45
-3 -1 -24 37.12 6.05
3 1 -24 32.09 4.57
3 1 24 29.04 4.85
-3 1 -24 41.24 5.15
3 1 -24 19.3 4.86
-3 1 -24 32.79 5.37
-3 1 -24 36.01 6.05
3 -1 24 23.83 4.51
3 -1 -24 33.31 5.23
-3 -1 24 30.62 4.69
-3 1 24 44.94 5.4
3 1 -24 28.15 5.12
-3 1 25 83.54 7.89
3 1 -25 69.47 8.58
-3 1 -25 57.62 7.84
-3 -1 25 70.4 7.29
3 1 25 85.42 8.01
3 -1 25 77.34 7.79
-3 1 -25 61.01 7.77
3 -1 -25 58.88 7.78
-3 -1 -25 73.29 8.8
-3 1 -25 75.21 7.67
-3 -1 -25 77.4 8.66
-3 1 25 50.29 9.75
3 1 -25 46.03 7.54
-3 1 -25 44.79 8.14
3 1 -25 64.88 7.08
-3 1 -26 328.03 28.02
-3 -1 26 333.47 27.03
-3 1 26 338.74 27.45
-3 -1 -26 372.63 29.14
3 1 26 383.38 28.01
3 -1 26 343.9 27.44
3 1 -26 299.05 27.81
3 1 -26 338.77 26.82
3 -1 -26 325.15 27.81
3 1 -26 312.91 28.23
-3 -1 -26 310.48 28
-3 1 -26 376.16 27.39
-3 1 26 327.13 30.31
-3 1 -26 310.07 28.65
-3 1 -26 356.61 27.87
3 -1 -27 178.66 16.91
3 -1 -27 193.6 17.53
-3 1 -27 176.29 17.01
-3 -1 27 190.75 16.07
-3 1 27 200.28 16.56
-3 -1 -27 191.14 17.49
3 1 27 184.16 16.63
-3 -1 -27 175.16 17.49
-3 1 -27 138.65 16.96
3 1 -27 154.73 16.69
-3 1 -27 219.45 16.53
3 1 -27 172.7 17.35
3 1 -27 207.87 15.98
-3 1 27 167.41 19.2
3 -1 27 202.66 16.57
-3 1 -27 173.35 16.5
-3 1 -28 23.27 4.83
3 1 -28 24.82 5.33
-3 -1 -28 22.51 5.71
-3 -1 -28 20.92 4.89
-3 1 -28 24.24 5.19
-3 1 28 10.78 6.13
-3 -1 28 37.55 4.88
3 -1 -28 25.99 5.52
-3 1 -28 18.38 5.5
3 1 28 32.92 4.99
3 -1 28 34.42 4.71
3 -1 -28 16.31 4.7
-3 1 28 35.38 4.97
-3 1 -28 25.22 4.59
3 1 -28 33.62 4.75
3 1 -28 16.41 5.29
-3 1 -29 120.31 12.49
3 -1 -29 111.18 12.89
-3 1 -29 125.72 13.23
-3 1 29 128.37 12.34
-3 -1 29 138.65 12.22
3 1 29 143.24 12.92
3 -1 29 122.67 12.21
3 1 -29 111.2 13.09
-3 -1 -29 141.94 14.02
-3 1 -29 120.5 13.7
-3 -1 -29 104.44 12.82
-3 1 29 123.14 15.34
3 -1 -29 111.47 12.65
3 1 -29 142.88 11.86
-3 1 -29 156.39 12.33
3 1 -29 96.59 12.53
3 1 -30 61.45 8.89
-3 1 30 64.73 7.77
-3 -1 30 63.96 7.53
3 1 30 60.39 7.75
3 -1 30 57.98 7.55
-3 -1 -30 72.72 9.34
3 -1 -30 59.76 8.26
3 -1 -30 65.11 8.73
-3 1 -30 61.71 8.37
3 1 -30 57.97 7.05
-3 1 30 56.5 10.18
-3 1 -30 71.66 7.58
-3 1 -30 47.97 8.68
-3 -1 -30 50.74 8.09
-3 1 -30 70.53 8.07
-3 1 -31 17.6 4.38
3 1 -31 14.19 3.47
3 1 -31 7.35 4.13
-3 1 31 13.6 3.91
-3 1 -31 19.18 5.26
3 1 31 13.02 4.51
3 -1 31 7.49 3.82
-3 1 31 9.03 5.6
-3 1 -31 18.86 4.73
-3 -1 31 21.32 3.96
-3 -1 -31 11.88 4.92
-3 -1 -31 14.62 4.77
3 -1 -31 19.01 4.85
3 -1 -31 10.45 4.29
-3 1 -31 17.3 3.79
-3 1 -32 10.7 3.84
-3 -1 -32 5.64 3.95
3 1 -32 11.54 3.16
-3 1 -32 3.19 2.59
-3 1 -32 13.59 4.3
-3 1 32 14.66 3.75
-3 1 -32 6.24 4.83
-3 -1 32 6.77 3.17
3 1 32 13.42 3.95
-3 1 32 -1.32 5.02
3 -1 -32 2.68 3.22
3 -1 32 9.65 3.32
3 1 -32 -1.92 3.56
-3 1 -33 13.01 3.81
3 -1 -33 8.28 4.06
3 1 -33 10.89 4.62
-3 -1 -33 0.97 3.05
-3 1 -33 8.7 3.24
3 1 -33 12.38 3.31
-3 1 33 5.43 5.7
-3 1 33 9.85 3.56
-3 -1 33 12.79 3.82
-3 1 -33 7.49 4.3
3 -1 33 11.28 3.79
-3 1 -33 14.01 4.52
3 1 33 5.09 3.48
-3 1 -34 0.69 2.87
3 1 -34 6.36 2.91
-3 1 -34 4.38 2.93
3 1 34 5.24 3.65
-3 1 -34 0.9 3.32
3 -1 -34 0.95 3.68
-3 -1 34 -0.6 2.96
-3 1 -34 6.6 5.09
3 1 -34 -2.06 3.56
-3 1 34 1.35 3.17
3 -1 34 2.73 2.86
-3 -1 -34 5.97 4.24
-3 1 35 12.82 6.62
-3 1 -35 25.32 4.9
-3 -1 -35 18.37 5.63
-3 1 -35 31.47 4.95
3 1 -35 12.73 5.11
-3 1 35 16.61 4.67
-3 1 -35 22.6 6.44
3 1 -35 25.01 4.58
3 -1 35 21.09 4.94
3 -1 -35 29.33 6.13
-3 -1 35 11.67 4.23
3 1 35 18.74 5.02
-3 1 -35 15.86 5.11
-3 1 -36 11.5 3.85
-3 -1 -36 -2.09 3.37
3 1 -36 1.67 2.6
3 -1 36 7.23 3.65
3 -1 -36 9.05 4.83
-3 -1 36 3.15 3.08
-3 1 -36 3.48 4.27
-3 1 36 5.83 5.51
3 1 -36 8.8 4.49
-3 1 -36 8.65 4.11
3 1 36 6.42 3.92
-3 1 36 0.71 3.36
-3 1 -37 2.18 3.04
-3 -1 -37 4.3 3.83
3 1 -37 5.14 2.93
3 1 37 2.47 3.52
3 -1 37 4.45 3.86
-3 1 37 0.73 3.49
-3 -1 37 3.88 3.46
-3 1 -37 -1.19 4.62
-3 1 -37 2.96 3.51
-3 1 37 2.98 5.78
3 -1 -37 7.22 4.77
3 1 -37 7.91 4.5
-3 -1 -38 25.3 6.34
3 -1 38 10.67 4.7
-3 1 -38 25.16 5.32
3 1 -38 22.18 6.71
-3 1 38 24.63 5.65
-3 -1 38 19.29 4.9
3 1 38 30.41 6.26
-3 1 38 16.53 7.57
3 -1 -38 22.22 5.82
-3 1 -38 -1.22 6.48
3 1 -38 28.64 5.1
-3 1 -39 11.3 3.97
-3 -1 -39 11.26 5.76
3 1 -39 5.36 3.14
-3 1 39 3.06 3.74
3 1 -39 -1.2 4.76
-3 -1 39 3.41 3.49
3 1 39 1.73 3.85
-3 1 39 3.07 5.94
3 -1 39 6.24 3.93
-3 1 -39 -3.75 4.97
3 -1 -39 2.17 4.1
-3 1 -40 12.14 4.27
-3 -1 -40 5.76 5.02
3 1 -40 6.09 3.6
-3 1 40 -1.56 8.22
3 1 -40 1.23 5.02
3 -1 -40 11.09 4.84
-3 1 40 0.78 4.79
-3 1 -40 1.28 5.68
3 1 40 -1.77 5.05
-3 -1 40 -4.2 4.59
3 -1 40 7.99 4.44
-3 1 -41 10.8 4.23
3 1 -41 14.91 4.16
-3 1 41 11.14 6.68
-3 -1 41 9.32 4.14
-3 -1 -41 10.59 5.18
-3 1 41 5.63 4.29
3 1 -41 8.81 5.42
3 -1 -41 7.94 4.79
3 1 41 12.69 5.02
3 -1 41 7.36 4.54
-3 1 -41 9.14 5.61
3 1 -42 38.71 6.17
-3 1 -42 35.24 6.19
3 -1 -42 30.15 7.21
-3 1 42 29.15 9.66
-4 -1 0 909.52 66.52
4 1 0 908.23 67.35
4 1 0 893.12 66.99
-4 1 0 942.18 66.28
4 -1 0 897.91 66.99
-4 -1 0 881.19 66.69
4 1 0 947.67 66.84
4 -1 0 917.48 66.58
4 1 0 908.16 67.45
-4 1 0 953.06 67
-4 -1 0 966.78 67.05
-4 -1 0 869.65 66.22
-4 1 0 919.93 66.79
-4 1 0 930.32 66.02
-4 -1 0 961.22 67.68
4 1 0 893.18 65.93
4 1 0 798.94 65.66
-4 1 0 970.4 66.8
4 -1 0 926.3 67.15
4 -1 0 904.42 66.23
-4 -1 0 948.55 66.96
-4 -1 0 852.06 65.68
-4 1 0 889.33 66.37
4 1 0 921.1 67.23
4 -1 0 873.63 66.29
-4 -1 -1 59.76 5.73
4 1 -1 75.59 6.43
4 1 1 44.44 5.44
4 -1 1 51.76 5.76
-4 1 -1 47.4 4.86
-4 1 1 48.68 4.93
4 -1 1 54.09 4.91
4 1 -1 45.15 4.64
-4 -1 -1 62.48 5.48
-4 1 1 52.73 5.37
-4 1 -1 58.15 5.55
4 1 1 48.64 5.53
4 -1 1 57.2 5.44
4 -1 1 50.45 5.68
-4 -1 1 50.8 5.36
4 1 1 59.47 5.65
4 1 -1 53.98 5.91
-4 -1 -1 55.99 6.48
4 1 1 45.45 6.1
-4 -1 1 61.49 6.45
4 -1 -1 44.17 5.69
-4 1 -1 53.62 5.79
-4 1 1 44.76 5.58
4 -1 -1 50.66 4.88
4 1 1 66.78 6.48
-4 1 1 52.19 5.15
-4 -1 1 73.73 5.95
4 1 -1 59.15 5.96
-4 -1 -1 64 5.06
-4 -1 1 69.25 5.28
4 1 1 45.91 4.51
-4 1 -1 43.58 5.29
4 1 -1 48.23 5.35
4 -1 -1 70.82 6
4 -1 -1 45.15 4.81
4 -1 1 61.15 5.15
-4 -1 1 58.06 5.7
-4 1 1 50.08 5.33
-4 -1 -1 61.41 5.81
4 1 -1 62.68 4.56
-4 -1 -1 60.49 4.45
-4 -1 1 60.25 4.6
-4 1 1 43.73 4.95
4 -1 1 59.62 5.32
-4 -1 1 45.11 4.98
-4 1 -1 64.5 5.68
4 1 -1 46.57 5.46
-4 1 -1 47.9 4.78
-4 1 1 48.46 4.59
4 -1 1 52.04 5.28
-4 -1 2 352.88 26.95
-4 -1 -2 334.57 27.36
-4 -1 -2 357.19 27.71
4 1 -2 370.15 27.68
-4 -1 2 371.04 27.54
-4 -1 -2 339.27 26.27
-4 1 -2 378.05 26.99
-4 1 2 380.38 27.98
-4 1 2 352.48 27
4 -1 2 366.71 26.91
4 1 -2 323.49 26.7
4 1 2 437.53 27.87
4 -1 2 348.28 27.77
-4 -1 2 377.92 27.75
-4 1 -2 375.49 27.54
-4 -1 2 362.63 27.42
4 1 2 365.88 27.68
4 1 -2 367.86 27.41
4 1 2 393.18 28.48
-4 1 2 350.81 27.31
-4 1 2 355.87 27.42
-4 1 -2 385.9 28.05
4 1 -2 360.61 27.62
4 1 2 341.98 26.48
4 -1 2 369.61 27.63
4 1 -2 372.97 27.97
4 1 2 349.94 28.22
4 1 -2 370.83 28.13
-4 -1 -2 376.84 28.53
4 -1 -2 367.57 27.69
4 -1 2 356.77 27.09
4 -1 2 363.37 27.39
-4 -1 2 329.25 26.5
-4 1 2 359.78 26.52
4 1 -2 373.85 26.91
-4 -1 -2 373.36 26.86
-4 -1 2 340.08 27.05
-4 1 2 331.88 26.99
4 1 -2 344.19 26.49
-4 -1 -2 373.93 27.72
-4 1 -2 372.31 27.51
4 -1 -2 344.73 26.76
4 -1 -2 373.34 28.1
-4 1 2 356.2 27.1
4 -1 -2 344.76 26.75
4 -1 2 330.53 27.2
4 -1 2 365.39 27.48
4 1 2 364.62 27.85
-4 1 -2 359.26 26.93
-4 1 -3 14.75 2.31
-4 -1 3 15.14 2.17
4 -1 3 19.17 3.15
4 1 3 23.27 3.31
-4 -1 3 21.24 2.94
4 -1 3 22.47 2.94
4 -1 3 21.11 3.1
-4 1 -3 18.8 2.41
4 1 -3 14.55 2.75
4 -1 3 12.72 2.43
-4 -1 -3 16.44 1.64
4 1 -3 16.62 3
4 1 3 16.21 3.61
4 -1 3 18.35 2.28
-4 1 3 17.59 2.42
-4 -1 -3 16.89 2.98
-4 -1 3 22.51 3
4 -1 3 14.33 2.75
-4 1 3 20.23 2.86
4 1 -3 16.18 2.69
4 -1 3 15.44 2.89
4 1 3 18.18 2.93
-4 1 3 10.75 2.46
4 1 -3 19.72 3.31
-4 -1 3 22.36 3.28
4 1 -3 13.28 3.21
-4 1 3 18.79 1.86
-4 1 -3 14.51 3.08
-4 -1 -3 16.36 3.64
4 1 -3 19.83 2.41
-4 1 -3 17.03 2.64
4 1 -3 15.82 2.45
-4 -1 3 20 2.61
-4 1 3 15.56 3.2
-4 -1 -3 17.43 2.15
4 1 3 15.94 1.82
-4 -1 -3 17.09 3.01
-4 1 3 14.69 2.54
-4 1 3 15.87 2.36
4 1 -3 19.73 2.07
4 1 3 14.48 2.89
4 -1 -3 16.63 3.33
4 -1 -3 14.36 1.99
-4 -1 3 15.85 2.02
4 -1 3 18.18 2.56
4 -1 -3 15.01 2.94
-4 -1 -3 17.43 3.08
4 -1 -3 17.38 2.06
-4 -1 -4 11.99 3.39
4 1 -4 19.9 2.5
4 -1 4 23.32 2.37
4 -1 4 19.55 2.87
-4 -1 -4 16.68 3.16
-4 -1 -4 21.17 3.19
-4 -1 -4 16.74 2.93
-4 -1 4 15.54 2.72
-4 1 -4 18.26 2.46
-4 1 4 19.46 2.79
4 1 -4 17.09 2.88
4 1 4 20.89 3.84
-4 1 4 17.46 2.57
-4 -1 4 16.24 2.13
-4 1 4 20.35 2.57
4 1 4 26.09 3.43
4 -1 4 20.55 3.06
-4 -1 4 19.74 2.92
4 -1 -4 12.88 3.08
4 -1 4 19.02 2.83
4 1 -4 22.33 3.44
-4 -1 -4 22.12 2.26
4 -1 4 19.42 3.14
-4 1 4 18.59 2.76
4 1 -4 16.18 3.34
4 1 -4 23.31 2.93
4 1 -4 21.25 2.71
-4 -1 -4 18.45 1.64
-4 1 4 12.28 3.15
4 1 4 25.55 3.16
-4 -1 4 16.99 2.22
4 1 -4 15.83 2.07
4 -1 -4 18.65 2.15
4 -1 4 21.59 2.72
4 -1 4 19.4 3.26
4 1 4 15.8 2.99
4 -1 -4 20.01 2.04
-4 1 -4 19.03 3.2
4 1 4 19.58 1.93
-4 1 4 17.59 2.46
4 -1 4 17.73 2.81
-4 1 -4 19.86 2.61
-4 1 -5 5.83 1.69
4 1 5 6.96 1.07
4 -1 5 8.99 2.14
-4 -1 5 5.96 1.36
4 1 -5 6.59 1.32
4 -1 -5 4.82 1.62
-4 -1 -5 3.45 2.01
4 1 5 9.05 2.47
-4 -1 -5 5.99 2.15
-4 1 -5 7.47 2.39
-4 1 -5 4.8 1.53
4 1 -5 6.65 1.65
4 1 -5 6.84 2.02
4 -1 5 9.56 1.63
4 1 -5 8.12 1.91
4 1 5 8.97 2.96
-4 1 5 7.73 1.83
4 1 5 6.35 2.06
4 -1 5 8.29 2.23
-4 -1 -5 4.66 2.01
-4 -1 5 7.62 2.01
-4 1 5 4.57 1.84
4 1 -5 7.03 1.79
4 -1 5 5.05 1.81
4 1 5 5.39 2.44
-4 1 5 6.83 1.82
-4 -1 -5 5.96 2.69
4 1 -5 3.7 2.21
4 1 -5 4.25 2.11
-4 -1 5 5.78 1.81
4 -1 5 5.55 1.86
-4 1 5 8.55 2.72
4 -1 -5 5.59 2.66
-4 -1 5 4.42 1.32
-4 -1 -5 6.73 1.92
4 1 5 8.12 2.16
4 1 -5 6.01 1.91
-4 -1 -5 6.84 1.26
4 -1 -5 6.4 1.24
4 -1 5 9.69 1.93
4 -1 -5 5.68 0.99
-4 1 5 5.22 1.47
4 -1 5 6.94 2.34
4 -1 5 8.07 2.15
-4 -1 -6 126.64 10.61
-4 -1 -6 127.13 10.78
4 1 6 127.13 10.73
4 1 -6 112.24 10.51
4 1 6 121.53 11.44
-4 1 6 113.37 9.58
4 1 -6 163.41 9.95
-4 -1 6 123.73 10.01
-4 1 6 114.77 9.77
4 -1 6 124.84 10.27
-4 -1 6 125.03 9.91
-4 1 6 121.7 9.94
4 -1 6 122.8 9.93
4 1 6 122.44 10.92
4 -1 6 106.61 10.03
4 1 6 126.86 10.65
4 -1 -6 115.74 9.65
-4 -1 -6 117.1 11.15
4 1 -6 121.8 10.12
4 1 -6 120.23 10.55
-4 -1 -6 119.96 9.95
4 1 6 119.93 10.21
4 1 -6 108.89 9.71
-4 -1 6 104.71 9.32
4 -1 -6 121.92 11.13
4 1 -6 123.43 9.72
-4 -1 -6 124.36 9.2
4 -1 -6 125.14 9.91
4 1 6 107.63 8.93
-4 1 6 126.51 9.96
-4 1 -6 117.64 9.6
4 1 -6 111 9.94
4 -1 6 122.68 9.46
4 1 -6 117.55 9.35
4 -1 -6 107.81 9.05
4 -1 6 110.85 9.86
-4 1 6 117.03 10.94
4 -1 6 109.39 10.25
4 -1 6 131.87 10.7
4 -1 -6 100.13 8.74
4 -1 6 111.74 10.2
-4 -1 -6 127.52 10.41
-4 1 -6 114.18 9.19
-4 1 -6 127.7 10.81
-4 1 -6 116.65 9.89
-4 1 -7 1326.59 94.89
-4 -1 -7 1312.98 95.22
4 1 7 1355.27 95.44
-4 -1 7 1288.26 94.47
4 1 -7 1304.12 94.56
4 1 7 1347.22 96.45
4 1 -7 1265.71 94.4
4 -1 -7 1274.14 94.35
4 1 7 1345.26 94.9
4 1 -7 1318.07 94.72
-4 1 -7 1163.99 94.36
4 1 7 1294.04 95.46
-4 -1 -7 1215.96 95.19
-4 1 -7 1360.16 94.53
-4 -1 7 1206.48 93.91
-4 1 -7 1255.73 93.82
-4 -1 -7 1260.88 95.84
-4 -1 -7 1302.06 94.51
4 -1 -7 1166.91 93.48
4 -1 7 1312.35 94.37
-4 1 7 1278.8 95.76
4 -1 -7 1266.35 95.8
-4 1 -7 1339.63 94.22
-4 -1 -7 1346.37 93.65
4 1 -7 1319 95.31
4 1 7 1395.06 95.31
4 1 -7 1309.47 94.27
4 1 7 1264.59 93.46
4 -1 -7 1188.13 94.12
4 -1 7 1335.05 94.02
-4 1 7 1282.58 94.4
4 -1 -7 1244.37 94.15
4 -1 7 1309.77 95.19
4 1 -7 1227.61 93.9
-4 -1 7 1271.2 94.37
4 -1 7 1304.02 94.88
-4 1 -7 1326.55 95.44
-4 1 7 1333.31 94.19
4 -1 7 1216.79 94.87
4 -1 7 1266.4 94.49
-4 -1 -7 1443.82 95.14
-4 -1 -8 71.94 8.06
-4 1 -8 78.36 7.11
4 1 8 83.56 8.2
4 -1 8 81.23 8.04
-4 -1 8 83.65 7.39
4 1 -8 83.1 7.45
-4 1 8 84.28 7.07
-4 1 8 97.94 9
4 1 -8 77.79 6.88
4 1 -8 97.33 8.44
4 -1 8 81.52 7.75
-4 -1 8 81.95 7.27
4 1 8 81.67 8.24
-4 1 -8 84.68 8.26
4 -1 8 86.66 7
-4 1 -8 89.61 7.46
4 1 -8 75.8 7.42
4 1 8 82.44 7.67
-4 1 -8 74.33 6.83
4 -1 8 82.67 7.26
-4 -1 -8 85.88 6.54
4 1 8 91.68 8.15
4 -1 -8 76.91 8.7
4 1 -8 94.09 7.4
4 1 8 91.52 9.25
4 -1 -8 85.04 7.29
-4 1 8 86.43 7.37
-4 -1 -8 89.25 8
4 -1 -8 69.67 6.31
4 1 -8 78.56 7.52
4 -1 8 71.44 7.35
-4 -1 -8 79.92 7.38
4 -1 -8 85.06 7.2
4 -1 -8 78.86 7.11
-4 -1 8 82.39 6.98
4 -1 8 72.84 7.79
-4 1 -8 81.19 7.47
-4 1 -8 79.96 7.71
4 1 9 150.49 11.96
-4 -1 -9 134.18 11.43
-4 1 -9 134.29 10.47
-4 1 -9 130.23 11.11
4 1 9 143.71 11.8
4 1 9 121.87 12.36
-4 -1 9 120.7 10.46
4 1 -9 122.94 10.77
-4 1 -9 126.4 11.5
4 1 -9 124.78 11.41
-4 -1 9 126.44 10.5
-4 1 9 112.91 11.77
4 1 9 120.46 11.32
4 -1 9 124.94 10.15
4 -1 9 125.89 11.26
-4 1 -9 120.96 10.15
-4 -1 -9 122.28 10.52
4 -1 9 129.5 10.4
-4 1 -9 139.92 11.23
-4 1 -9 125.78 10.57
4 1 -9 123.46 10.61
4 1 9 131.44 11
-4 -1 9 142.95 10.46
-4 -1 9 113.46 10.09
4 1 -9 109.11 10.53
-4 -1 -9 137.3 9.67
4 -1 -9 114.32 11.85
-4 1 -9 105.29 10.5
4 1 -9 117.8 10.34
4 -1 -9 117.14 10.33
-4 1 9 124.56 10.44
4 1 9 132.48 11.37
4 -1 9 119.42 10.64
-4 -1 -9 144.71 11.31
4 1 -9 117.31 10.08
4 -1 -9 120.19 10.59
4 -1 -9 117.32 10.26
-4 1 9 128.2 10.21
4 -1 9 123.76 11.12
4 -1 -9 113.28 10.23
4 -1 10 30.6 3.44
-4 -1 10 39.61 3.97
-4 1 -10 27.91 4.17
4 1 -10 26.78 3.99
4 1 10 36.88 4.74
-4 -1 -10 32.54 4.6
-4 -1 -10 31.51 4.26
4 1 10 30.29 4.4
4 1 10 30.51 4.26
-4 1 -10 26.02 4.02
4 1 10 31.41 5.49
4 1 -10 26.76 3.68
4 1 10 36.77 4.74
4 1 10 30.34 4.57
-4 1 -10 31.36 3.52
-4 -1 -10 30.97 3.83
-4 1 -10 34.89 3.89
4 -1 10 34.91 3.77
-4 -1 10 39.18 3.77
4 -1 10 33.94 4.58
-4 1 -10 35.78 4.79
4 -1 -10 31.23 3.83
4 -1 -10 24.89 3.5
-4 1 10 26.45 4.87
-4 1 10 32.41 3.64
4 -1 -10 29.02 5.2
4 1 -10 33.2 3.42
4 -1 10 32.65 3.93
4 1 -10 32.09 4
4 1 -10 34.43 3.82
-4 -1 10 28.92 3.39
-4 1 10 31.66 3.42
4 -1 -10 30.84 3.69
4 -1 -10 23 3.39
4 -1 10 28.16 4.17
-4 1 -10 31.25 3.94
-4 1 -11 171.89 14.96
4 1 11 200.2 15.85
4 1 11 204.24 17.18
4 -1 11 187.78 14.27
-4 -1 -11 152.16 15.2
4 -1 -11 168.71 14.33
4 -1 -11 184.44 14.36
-4 1 -11 190.22 14.44
-4 -1 -11 185.7 14.61
-4 1 -11 191.44 14.55
4 1 -11 188.01 15
4 1 11 202.11 15.2
-4 -1 -11 197.58 15.31
-4 -1 11 160.54 14.23
4 -1 -11 193.21 14.74
4 -1 11 207.79 15.72
-4 -1 11 175.94 14.45
-4 1 11 181.12 14.45
-4 1 11 169.02 16.09
-4 1 -11 201.17 15.91
4 1 -11 170.51 14.14
4 1 -11 163.59 14.74
-4 -1 11 161.53 14.1
4 -1 11 168.32 15.13
-4 1 -11 149.82 14.83
4 1 11 196.48 15.88
-4 1 -11 162.84 14.67
-4 1 -12 350.63 28.49
4 -1 12 355.07 27.71
4 1 12 382.84 30.6
-4 1 12 407.25 28.11
4 1 12 352.48 29.19
-4 1 -12 338.58 27.87
-4 -1 -12 361.37 28.04
-4 1 -12 364.91 27.96
4 -1 -12 395 28.36
-4 -1 -12 386 28.86
-4 1 -12 370.08 29.32
-4 -1 12 373.46 27.94
-4 1 12 385.01 30.22
4 1 -12 392.13 28.66
-4 -1 12 376.05 28
4 1 -12 359.93 28.17
4 1 -12 353.36 27.7
4 1 12 369.74 28.54
-4 -1 12 350.66 27.69
4 -1 -12 360.5 27.76
4 1 12 374.55 29.35
-4 1 -12 324.81 28.52
-4 1 -12 329.47 28.22
-4 1 -13 130.6 12.26
4 1 13 127.17 12.97
4 1 13 138.75 14.37
4 1 13 134.65 12.35
-4 -1 13 154.75 11.93
-4 -1 13 156.07 11.96
-4 -1 -13 125.27 12.61
-4 1 -13 115.57 11.66
-4 1 -13 139.43 11.78
4 1 -13 149.28 12.49
-4 -1 -13 148.16 12.71
-4 1 -13 139.5 13.11
4 -1 -13 148.48 11.67
-4 1 13 159.87 14.17
4 -1 13 129.01 11.54
4 1 13 142.83 13.12
4 1 -13 146.11 12.06
4 1 -13 152.02 11.7
-4 -1 -13 149.58 13.14
4 1 13 124.65 12.19
-4 1 -13 121.73 12.42
-4 1 13 173.76 12.14
4 -1 -13 164.8 12.31
-4 1 -13 132.87 12.18
4 -1 14 120.24 10.23
-4 -1 -14 108.48 11.36
-4 1 14 136.15 10.54
4 1 14 102.25 12.64
-4 -1 -14 106.56 11.22
-4 1 -14 114.27 10.51
-4 1 -14 123.15 10.38
4 1 14 124.22 11.1
-4 1 14 128.06 12.68
4 1 -14 119.21 10.96
-4 -1 14 119.78 10.43
-4 1 -14 124.63 10.96
-4 -1 14 140.11 10.56
4 1 14 111.82 10.84
4 -1 -14 133.94 10.8
-4 1 -14 115.54 11.63
4 1 -14 108.08 10.43
4 1 -14 127.81 10.26
-4 -1 -14 124.46 11.24
4 1 14 114.75 11.6
4 -1 -14 124.13 10.16
4 1 14 106.34 11.5
-4 1 -14 113.48 10.78
-4 1 14 125.9 11.02
4 1 15 1031.96 80.24
-4 -1 15 1090.05 78.7
-4 1 -15 1038.78 80.25
-4 -1 -15 1060.74 80.12
-4 1 -15 979.76 78.88
4 -1 -15 1128.73 79.17
-4 1 15 1116.33 78.82
4 1 15 1062.57 79.44
-4 1 -15 1113.93 78.69
4 1 15 1014.17 79.23
-4 -1 -15 1128.71 79.83
-4 1 15 1077.58 81.3
4 1 -15 1060.76 79.49
4 1 -15 1011.01 78.8
4 1 -15 1026.71 78.51
4 -1 15 1068.34 78.63
-4 -1 15 1089.79 78.9
4 1 15 1026.12 80.17
4 1 -15 1074.15 79.41
-4 1 -15 974.27 79.14
-4 1 15 1093.48 79.41
-4 1 -15 1056.39 79.24
-4 1 -16 30.47 4.63
-4 1 16 32.82 4.87
4 1 16 42.09 5.96
4 -1 16 31.41 4.34
4 1 16 41.34 5.71
4 1 16 36.98 4.95
4 -1 -16 39.35 4.83
-4 -1 16 41.22 4.61
-4 -1 -16 36.23 5.59
-4 1 -16 34.81 4.85
-4 1 16 47.15 4.6
4 1 16 34.86 4.9
-4 1 -16 37.78 5.76
-4 -1 -16 28.57 4.94
-4 1 16 42.49 6.48
-4 1 16 36.98 4.43
-4 -1 16 41.63 4.82
-4 1 -16 33.52 4.67
4 1 -16 47.73 5.03
4 1 -16 38.29 4.24
4 1 -16 43.38 5.35
4 1 -16 38.81 5.12
-4 1 17 1398.39 103.77
-4 -1 -17 1396.17 104.67
4 1 17 1362.12 104.93
-4 1 -17 1353.76 103.64
4 -1 -17 1459.57 103.72
-4 1 17 1387.11 103.01
4 1 -17 1354.34 104.03
4 -1 17 1501.68 103.88
-4 -1 -17 1441.55 104.37
-4 1 17 1355.97 105.81
4 1 -17 1351.95 103.81
-4 1 17 1389.82 103.2
-4 1 -17 1375.27 104.9
-4 -1 17 1462.36 103.55
4 1 -17 1306.74 103.18
4 1 -17 1361.16 103.05
4 1 17 1455.02 104.08
-4 1 -17 1477.03 103.81
-4 1 -17 1351.4 103.83
-4 1 18 815.16 63.86
-4 1 18 866.93 63.22
-4 1 18 873.11 64.02
-4 1 -18 799.27 63.8
4 1 18 883.14 64.26
4 -1 18 850.14 63.92
-4 1 -18 878.57 65.31
-4 -1 -18 924.53 64.78
-4 -1 -18 886.77 65.02
4 -1 -18 884.99 63.96
4 1 18 856.96 65.28
4 1 -18 829.24 63.21
4 1 -18 776.75 63.26
4 1 -18 877.67 64.45
4 1 -18 836.26 64.02
-4 1 18 865.2 66.22
-4 1 -18 850.03 63.84
-4 1 -18 782.53 63.88
-4 1 19 265.36 22.45
-4 1 -19 280.87 22.4
-4 -1 19 270.17 22.18
-4 1 19 273.31 22.49
-4 1 19 238.98 24.13
-4 1 -19 287.86 22.67
4 1 19 290.96 22.85
4 -1 -19 299.08 22.64
4 -1 19 296.29 22.67
-4 1 19 284.31 21.8
-4 1 -19 280.4 23.76
4 1 -19 255.91 21.85
-4 -1 -19 267.3 23.37
4 1 -19 271.38 22.92
4 1 -19 279.13 21.87
-4 -1 -19 298.29 23.27
4 1 -19 260.11 22.54
4 1 19 270.11 23.69
-4 1 -19 263.86 22.55
-4 1 -20 19.43 3.98
4 1 20 22.81 4.87
-4 1 -20 22.94 3.94
4 -1 20 19.37 3.99
-4 -1 -20 15.94 4.24
4 -1 -20 15.41 3.55
-4 1 -20 29.5 4.31
-4 -1 20 20.4 3.57
-4 1 20 22.58 4.06
4 1 -20 20.61 4.07
4 1 -20 23.84 3.46
-4 1 20 23.29 5.88
4 1 20 20.84 4.09
-4 1 20 21.96 3.43
-4 -1 -20 24.04 4.51
4 1 -20 16.81 3.9
-4 1 -20 20.49 4.67
4 1 -21 349.64 28.99
4 1 21 357.8 30.19
-4 -1 21 352.84 28.52
-4 1 21 351.9 28.77
-4 1 -21 352.7 28.98
4 1 -21 344.99 29.29
-4 1 -21 401.21 30.55
4 1 21 370.56 29.16
4 -1 -21 367.9 28.97
-4 -1 -21 371.3 29.61
4 -1 21 358.82 28.83
-4 -1 -21 353.62 29.82
-4 1 21 339.57 30.96
4 1 -21 359.51 28.21
-4 1 -21 394.15 28.83
-4 1 -21 352.46 28.92
-4 1 -22 38.97 5.44
4 1 22 32.98 6.06
-4 1 -22 32.99 5.98
-4 1 -22 28.89 4.77
-4 1 22 34.08 5.08
4 -1 -22 37.41 5.27
4 1 -22 28.52 5.13
-4 1 22 19.85 5.88
4 1 22 32.72 5.26
4 -1 22 32.34 5.04
-4 -1 -22 33.87 5.76
-4 -1 22 29.69 4.71
-4 1 -22 23.28 4.61
4 1 -22 34 4.45
-4 -1 -22 26.25 5.45
4 1 -22 28.22 4.96
4 1 23 72.05 9.28
-4 -1 -23 78.54 9.45
-4 -1 23 81.39 8.18
-4 1 23 84.73 8.44
4 -1 23 82.82 8.36
-4 1 -23 65.24 8.17
4 1 -23 75.52 8.41
-4 1 23 76.72 10.52
4 1 23 72.42 8.25
-4 -1 -23 61.15 8.44
4 -1 -23 83.36 8.44
-4 1 -23 60.15 8.82
4 1 -23 83.52 7.69
4 1 -23 69.96 8.6
-4 1 -23 77.53 7.98
-4 1 -23 70.08 8.23
4 1 -24 222.86 20.23
4 1 24 195.23 20.8
4 -1 24 244.45 20.1
-4 -1 24 235.64 19.72
-4 1 24 247.51 20.13
-4 1 -24 217.33 20.16
4 -1 -24 248.65 20.39
-4 1 -24 215.99 21.25
-4 -1 -24 259.36 21.14
-4 -1 -24 217.5 20.84
-4 1 24 228.11 22.62
4 1 -24 253.4 19.45
4 1 24 250.78 20.45
4 1 -24 218.97 20.56
-4 1 -24 246.61 19.85
-4 1 -24 260.01 20.42
4 1 25 116.82 13.18
4 1 -25 115.83 12.09
-4 -1 25 142.11 11.7
-4 1 25 140.11 12.09
-4 1 -25 110.55 11.92
4 1 -25 125.34 12.58
-4 -1 -25 113.28 12.35
4 1 25 135.84 12.22
-4 1 25 127.92 14.53
4 -1 -25 150.14 12.58
4 -1 25 112.37 11.52
-4 -1 -25 99.34 12.27
-4 1 -25 111.78 11.31
-4 1 -25 100.94 12.62
4 1 -25 146.54 11.4
-4 1 -25 104.37 11.55
-4 -1 26 123.48 11.01
-4 1 26 125.23 11.4
-4 1 -26 97.42 11.27
4 1 26 125.35 11.73
4 -1 26 118 11.32
-4 1 -26 90.76 12.04
-4 -1 -26 102.58 11.85
-4 1 26 97.56 13.5
4 1 -26 105 11.81
4 1 -26 114.69 10.45
4 -1 -26 99.58 11.31
4 1 -26 98.9 11.47
-4 1 -26 133.4 11.07
-4 -1 -26 111.48 12.45
-4 1 -26 106.94 11.14
4 1 -27 1680.87 119.15
4 -1 27 1618.79 119.91
4 1 27 1556.36 120.07
-4 -1 27 1602.1 119.42
-4 1 27 1696.24 119.96
-4 1 27 1564.03 122.79
-4 1 -27 1506.74 121.34
4 -1 -27 1565.23 120.19
-4 -1 -27 1533.36 120.69
-4 1 -27 1691.74 119.5
-4 -1 -27 1578.84 121.14
4 1 -27 1540.5 120.75
-4 1 -27 1609.09 119.98
-4 1 -28 20.98 4.59
-4 -1 -28 20.32 5.16
-4 -1 28 18.92 4.13
4 1 -28 12.84 3.47
4 1 28 24.87 5.29
-4 1 -28 24.94 4.52
-4 1 -28 21.99 5.25
-4 1 28 14.19 4.39
4 -1 -28 14.06 4.67
-4 1 28 21.57 6.68
4 -1 28 17.83 4.48
4 1 -28 8.24 4.2
-4 -1 -28 12.01 4.92
-4 1 -29 134.05 15.87
-4 -1 -29 158.18 16
-4 -1 29 157.94 14.41
-4 1 29 172.09 14.9
4 1 -29 151.29 15.72
-4 1 -29 153.36 14.18
-4 1 29 141.51 17.22
4 -1 29 161.15 14.88
4 1 -29 178.31 14.36
4 -1 -29 136.33 14.95
-4 -1 -29 144.47 15.57
4 1 29 190 15.64
-4 1 -29 157.87 14.85
-4 -1 -30 61.83 9.31
4 -1 30 69.82 8.66
-4 -1 30 84.54 8.68
-4 1 30 69.35 8.56
-4 -1 -30 67.66 9.34
4 -1 -30 83.43 9.52
4 1 -30 63.15 9.24
-4 1 -30 71.04 9.97
-4 1 30 68.19 11.06
4 1 -30 75.52 8
-4 1 -30 72.24 8.62
4 1 30 68.63 8.76
-4 1 -30 81.7 8.36
-4 -1 31 295.31 24.43
-4 1 31 266.21 24.55
4 1 31 311.55 25.48
4 -1 31 309.75 25.08
4 -1 -31 307.77 25.73
4 1 -31 252.08 25.55
-4 1 31 279.61 27.95
4 1 -31 319.44 24.21
-4 -1 -31 286.12 26.25
-4 1 -31 278.81 26.49
-4 1 -31 310.34 24.33
-4 1 -31 282.33 24.83
-4 -1 -32 49.02 8.24
4 1 32 58.39 7.8
4 -1 -32 48.1 7.84
-4 -1 32 45.67 6.51
-4 1 32 51.19 6.94
4 1 -32 50.77 8.08
-4 1 -32 63.32 9.17
-4 1 32 43.77 9.17
4 -1 32 39.1 6.72
4 1 -32 53.13 6.48
-4 1 -32 43.94 6.86
-4 1 -32 58.55 6.83
4 1 -33 9.51 3.07
-4 -1 -33 11.84 4.92
-4 -1 33 10.85 3.65
-4 1 33 8.11 3.7
4 -1 -33 8.27 4.21
4 1 33 7.8 3.59
4 -1 33 4.94 3.13
-4 1 33 9.51 5.7
-4 1 -33 12.46 3.79
4 1 -33 2.96 3.56
-4 1 -33 9.93 4.43
-4 1 -34 16.99 4.19
-4 -1 -34 8.1 4.65
4 1 34 6.41 3.77
4 -1 -34 5.69 3.84
-4 -1 34 12.38 3.77
4 1 -34 7.2 4.05
-4 1 -34 11.33 5.09
-4 1 34 15.04 6.59
4 1 -34 10.31 3.62
-4 1 34 12.47 4.06
4 -1 34 10.15 3.94
-4 1 -35 27.17 5.23
4 1 -35 31.74 4.97
-4 -1 -35 21.82 5.89
4 -1 35 23.83 5.38
-4 1 -35 26.72 6.6
4 -1 -35 14.64 5.07
-4 1 35 26.34 5.54
-4 -1 35 29.26 5.23
4 1 -35 35.93 7.19
-4 1 35 34.93 8.33
4 1 35 11.52 4.56
4 1 -36 5.15 3.15
-4 -1 -36 1.06 3.43
-4 -1 36 6.52 3.25
4 -1 36 6.88 3.8
-4 1 -36 8.33 4.25
-4 1 36 4.38 3.63
4 1 -36 6.6 4.7
-4 1 36 1.43 4.76
4 -1 -36 5.02 4.1
4 1 36 0.84 3.37
-4 1 -36 4.38 3.57
-4 1 -37 80.48 10.13
4 -1 -37 95.7 11.86
-4 1 37 105.46 11.09
-4 -1 37 87 10.12
4 1 37 92.6 11.21
-4 -1 -37 91.61 11.82
4 1 -37 82.27 11.71
-4 1 -37 70.74 11.6
-4 1 37 80.14 13.18
4 1 -37 105.42 10.14
4 -1 37 92.42 10.93
-4 1 -38 17.46 4.57
4 1 -38 20.36 4.31
4 1 38 9.49 5.98
4 1 38 19.5 5.29
4 -1 38 13.63 4.65
-4 -1 -38 24.55 6.3
4 1 -38 11.69 5.52
-4 1 38 17.55 5.11
-4 -1 38 16.39 4.48
-4 1 -38 18.72 5.77
-4 1 38 5.95 6.16
4 -1 -38 9.51 4.74
-4 1 -39 186.82 17.27
4 1 39 168.11 19.22
4 -1 -39 179.79 18.75
-4 1 39 199.21 17.74
-4 -1 39 167.9 16.76
-4 -1 -39 172.19 19.01
4 1 39 180.58 18.02
4 -1 39 173.15 17.42
4 1 -39 168.63 18.96
-4 1 -39 163.12 18.97
4 1 -39 201.45 16.7
-4 1 39 146.86 20.6
-4 1 -40 7.01 4.21
4 1 40 -3.7 5.69
-4 -1 -40 3.5 4.4
4 -1 40 -2.55 3.85
4 1 -40 2.47 4.52
-4 1 40 0.8 3.87
-4 -1 40 -1.43 3.47
-4 1 -40 1.3 4.48
-4 1 40 4.62 5.97
4 1 -40 -0.63 2.85
4 -1 -40 -1.11 3.81
4 1 40 -1.86 3.96
-4 1 -41 79.9 9.58
4 1 41 55.2 10.63
-4 1 41 48.6 11.96
4 -1 -41 66.79 10.32
4 1 42 20.41 6.87
-5 -1 0 12.23 2.79
-5 -1 0 22.62 2.91
5 1 0 8.86 2.58
-5 1 0 8.94 2.2
5 -1 0 18.89 3.41
5 -1 0 18.29 2.58
-5 -1 0 10.81 2.87
-5 1 0 8.75 2.8
5 1 0 14.31 3.07
5 -1 0 19.93 3
-5 1 0 10.96 2.52
5 1 0 13.35 3.67
-5 -1 0 10.2 2.93
-5 1 0 18.07 3.1
-5 1 0 6.97 2.28
-5 -1 0 3.87 3.16
5 1 0 12.48 1.86
5 -1 0 5.67 2.77
-5 -1 0 17.39 2.45
-5 -1 0 16.46 1.78
5 -1 0 17.07 2.37
-5 1 0 15.84 2.4
-5 1 -1 83.4 6.94
-5 -1 -1 75.66 7.49
-5 -1 1 89.58 7.32
-5 -1 1 97.44 8.23
-5 -1 -1 68.82 7.58
-5 -1 1 79.08 7.69
5 1 1 74.4 7.8
5 1 -1 92.94 8.06
5 -1 1 73.92 7.09
-5 1 1 88.52 7.73
-5 -1 1 89.58 7.91
-5 1 -1 85.96 7.91
-5 1 1 102.75 8.08
-5 1 1 80.53 7.21
5 1 -1 102.29 8.2
5 -1 1 97 7.95
5 -1 1 71.11 6.97
5 1 1 80.8 7.91
-5 -1 -1 92.58 7.18
5 1 1 68.68 8.38
5 1 -1 95.59 8.81
5 -1 1 83.68 7.96
-5 1 -1 82.44 7.26
5 -1 1 43.19 6.29
-5 1 -1 96.27 7.98
-5 1 1 79.18 7.86
5 -1 1 84.5 8.02
5 -1 -1 105.22 8.65
5 1 -1 89.02 8.35
5 -1 -1 114.86 8.12
-5 -1 1 99.08 7.59
-5 1 -1 80.72 7.12
-5 1 -1 79.13 7.55
-5 1 1 89.85 7.53
5 1 1 76.43 6.64
5 1 -1 74.86 6.7
-5 -1 -1 63.88 8.5
-5 -1 1 91.2 8.8
5 -1 -1 87.71 8.17
5 -1 -1 92.1 7.14
-5 -1 -1 75.04 6.41
-5 -1 1 89.29 6.61
-5 -1 -1 79.12 7.85
-5 1 1 85.95 7.21
5 1 1 84.92 7.85
-5 1 -2 219.63 16.04
-5 1 2 202.02 16.26
-5 -1 2 212.82 16.18
-5 -1 -2 196.25 15.29
-5 -1 -2 219.94 16.8
-5 -1 -2 201.09 16.87
-5 -1 2 193.49 16.6
5 1 -2 200.91 16.73
-5 1 2 203.06 16.17
5 -1 2 211.05 16.82
-5 -1 2 222.69 17.07
-5 1 -2 232.34 17
-5 -1 2 209.33 16.72
5 1 2 228.13 17.11
-5 1 2 225.33 16.73
5 -1 2 228.62 16.87
5 1 -2 234.73 16.94
5 -1 2 197.53 16.93
-5 1 -2 221.21 16.28
5 -1 2 221.12 16.21
5 -1 2 170.95 15.31
5 1 2 198.33 17.46
5 -1 -2 176.98 15.44
5 1 -2 227.57 17.55
-5 -1 -2 213.56 17.92
5 -1 -2 200.83 16.8
5 -1 2 214.93 16.89
5 -1 -2 205.61 17.19
5 1 2 209.51 17.01
-5 -1 -2 236.57 17.2
-5 1 -2 214.09 16.75
-5 1 2 184.2 16.77
-5 1 2 211.27 16.59
5 1 2 180.93 15.51
5 1 -2 194.79 15.74
-5 -1 2 215.17 16.29
5 1 -2 203.13 17.2
5 -1 -2 190.67 15.81
5 -1 2 196.75 16.1
-5 -1 2 198.5 15.5
-5 1 -2 206.87 16.12
-5 -1 -2 221.12 16.06
-5 1 2 219.09 16.12
5 1 -2 199.26 16.31
-5 1 -2 226.59 17.39
5 1 2 207.34 16.87
-5 1 -2 222.99 16.77
-5 1 -3 381.81 25.29
5 1 -3 303.26 25.33
-5 -1 -3 375.83 26.16
-5 -1 3 323.64 25.69
5 1 3 372.36 26.46
5 1 -3 297.19 25.64
-5 1 3 316.53 25.25
5 -1 3 363.59 25.3
-5 1 -3 379.09 26.65
-5 1 3 317.3 25.06
-5 -1 3 355.75 26.21
5 -1 3 402.37 26.2
-5 -1 3 363.47 25.91
5 1 3 397.84 26.51
-5 1 3 359.51 25.78
5 1 -3 363.5 25.92
5 -1 3 315.22 24.5
-5 1 -3 357.16 25.81
5 -1 -3 336.98 25.91
5 -1 3 343.04 25.86
5 1 -3 363.19 26.56
-5 -1 -3 385.8 27.31
5 -1 -3 283.43 24.54
5 -1 3 313.94 26.05
-5 -1 -3 324.98 24.31
-5 1 3 353.42 26.36
5 -1 -3 313.92 26.28
-5 1 -3 336.7 25.3
-5 -1 -3 378.05 25.15
-5 1 -3 351.47 25.91
-5 1 3 331.7 25.62
5 1 3 291.63 24.57
5 1 -3 316.43 24.89
-5 -1 -3 313.29 26.02
5 1 -3 333.43 26.33
5 1 3 357.39 26.18
5 -1 -3 285.68 24.75
-5 -1 3 286.48 24.94
5 -1 3 323.02 25.26
-5 -1 3 283.52 24.57
-5 -1 -3 390.67 26.38
-5 1 3 340.98 25.39
-5 -1 3 344.17 25.45
5 -1 3 318.61 25.87
-5 1 -4 268.63 18.03
-5 1 4 254.05 18.41
-5 -1 4 223.82 17.56
-5 -1 -4 237.55 18.71
-5 -1 -4 218.03 18.75
5 1 4 227.68 18.81
-5 -1 4 244.06 18.43
-5 1 -4 220.17 17.85
5 -1 4 222.53 18.23
5 1 -4 227.69 18.38
5 -1 4 233.01 17.78
-5 1 4 229.65 17.95
5 1 -4 235.29 17.63
5 1 4 215.61 18.44
5 1 4 256.25 19
5 -1 4 234.63 18.56
5 1 -4 221.42 17.99
-5 -1 4 218.02 18
5 -1 4 170.47 18.06
5 -1 -4 216.72 19.1
5 -1 -4 250.02 18.69
-5 -1 -4 244.74 19.73
5 1 -4 256.41 19.13
-5 1 -4 237.12 19.08
-5 1 4 246.24 19.12
-5 -1 -4 257.7 17.65
-5 1 -4 240.69 18.47
-5 -1 -4 245.44 18.78
-5 1 4 228.66 18.2
5 1 4 189 17.11
-5 -1 4 243.62 18.41
5 -1 -4 221.63 18.05
5 1 -4 216.02 17.33
5 1 -4 262.13 19.23
5 -1 4 236.38 18.88
5 -1 -4 209.86 17.33
5 -1 4 204.56 17.8
-5 -1 4 215.41 17.31
-5 1 4 241.81 17.79
-5 1 4 233.8 17.97
5 -1 4 209.26 18.48
5 -1 -5 708.52 55.79
-5 -1 5 634.78 53.85
-5 -1 -5 764.42 55.42
-5 -1 -5 714.69 55.51
5 1 5 793.83 55.7
-5 1 -5 715.45 54.43
-5 -1 5 770.65 54.95
5 1 -5 691.42 54.54
5 1 -5 727.34 54.94
5 -1 5 753.99 54.35
-5 1 5 760.2 54.55
5 -1 5 755.04 54.88
5 1 5 791.51 55.56
5 -1 5 791.28 55.29
-5 -1 5 807.7 54.99
-5 1 5 805.64 54.93
5 -1 5 631.12 54.69
-5 -1 -5 795.52 56.37
5 1 -5 813.45 55.69
-5 -1 -5 757.92 54.06
5 1 5 762.02 55.31
-5 1 5 761.68 55.74
-5 -1 -5 849.96 55.59
5 -1 -5 774.46 54.74
-5 -1 5 756.24 54.72
5 1 -5 682.2 54.11
-5 1 5 736.81 54.72
5 1 -5 687.49 53.93
5 -1 5 722.37 55.38
5 -1 -5 632.3 53.74
5 -1 5 669.95 54.43
5 1 -5 771.11 55.73
-5 -1 5 693.13 53.9
-5 1 -5 799.97 55.92
-5 1 5 714.08 54.23
-5 1 5 761.37 54.6
5 -1 5 720.74 55.29
-5 1 -5 833.93 54.64
-5 -1 -6 172.1 14.58
-5 -1 -6 147.1 14.37
-5 1 -6 159.58 13.56
5 1 6 186.05 14.85
-5 -1 6 179.28 14.05
5 -1 6 157.04 13.38
5 1 -6 174.06 14.08
-5 1 6 187.3 15.17
5 -1 6 181.9 14.46
-5 -1 6 201.64 14.23
-5 1 6 185.73 14.05
5 -1 6 126.86 13.61
5 1 6 176.58 14.61
5 1 6 150.99 14.48
5 1 -6 162.2 13.77
-5 -1 -6 182.89 15.47
5 1 6 166.64 14.46
-5 -1 -6 165.19 14.01
5 -1 6 178.53 14.79
5 1 -6 184.33 14.76
-5 -1 -6 172.26 14.48
5 -1 -6 155.05 14.85
-5 -1 -6 170.44 13.13
5 -1 -6 180.54 13.87
-5 -1 6 154.21 13.73
5 1 -6 161.95 13.34
5 1 -6 181.94 14.26
5 1 -6 159.29 13.12
-5 1 -6 167.86 14.74
-5 1 6 163.55 13.67
-5 1 6 180.07 13.92
5 -1 6 157.42 13.66
5 -1 6 179.23 13.98
-5 -1 6 153.2 13.09
-5 1 6 183.47 13.52
5 1 -6 165.9 14.63
5 -1 6 154.67 14.33
5 1 6 146.02 14.06
-5 1 -6 189.77 13.84
-5 -1 -7 216.45 19.76
-5 1 -7 261.21 20.4
-5 -1 7 237.01 19.25
5 -1 7 257.55 20.15
5 -1 7 245.56 18.86
5 1 -7 251.16 19.46
5 -1 -7 243.8 19.17
5 1 7 241.85 19.95
5 -1 7 260.04 19.85
-5 -1 7 280.05 19.51
-5 1 7 261.85 19.43
5 1 -7 241.16 19.34
5 1 7 216.22 19.85
5 -1 7 185.74 18.85
-5 -1 -7 250.36 20.08
-5 -1 -7 258.71 20.84
5 1 -7 248.48 19.58
-5 -1 -7 211.81 19.13
5 1 7 243.27 19.7
-5 1 7 250.14 19.17
-5 1 7 252.39 20.55
5 1 -7 254.88 19.01
-5 -1 -7 257.06 18.49
5 -1 -7 231.4 19.11
-5 1 7 225.71 19.09
5 1 -7 240.31 18.81
-5 -1 7 237.41 19.28
5 1 7 251.04 20.16
5 1 -7 238.39 18.58
-5 -1 7 214.74 18.46
-5 1 -7 246.17 19.06
5 -1 7 264.41 19.32
5 -1 7 231.18 19.89
-5 1 7 258.91 18.87
5 1 -7 265.39 20.28
5 -1 7 206.19 18.99
-5 1 -7 269.77 19.3
-5 -1 -8 164.57 13.72
5 1 -8 154.3 13.58
5 1 8 195.44 14.27
-5 -1 8 145.24 12.7
5 -1 8 170.67 12.53
5 1 -8 132.62 12.67
5 -1 8 169.65 13.52
-5 -1 8 178.97 13
-5 1 8 156.87 12.83
5 1 -8 131.93 12.81
5 1 8 137.85 13.31
-5 -1 -8 177.59 14.58
-5 -1 -8 143.72 12.73
-5 1 -8 153.49 12.9
5 1 8 165.59 13.37
-5 1 -8 158.56 13.84
5 -1 8 169.3 12.84
-5 1 8 160.83 14.18
-5 1 8 159.14 12.72
-5 -1 -8 147.16 11.62
5 1 -8 130.8 12.2
5 -1 -8 160.68 12.72
5 1 -8 142.2 12.86
-5 1 8 142.3 12.56
5 1 -8 135.97 12.03
5 -1 8 149.15 13.46
5 -1 8 136.66 12.59
-5 -1 8 133.31 12.03
5 -1 8 146.66 13.49
-5 1 8 176.02 12.48
5 -1 8 139.14 13.07
-5 -1 -8 179.94 13.85
-5 1 -8 179.25 12.97
5 1 9 336.1 26.17
5 1 9 318.59 25.75
5 1 -9 343.8 25.08
-5 1 9 328.62 24.81
5 -1 9 323.86 25.44
5 -1 9 337.43 24.5
5 1 9 254.31 25.13
-5 -1 -9 305.5 25.46
-5 -1 -9 284.58 26.04
5 1 -9 333.73 25.28
-5 1 -9 301.11 24.74
5 1 9 300.91 25.19
5 -1 9 316.2 24.67
-5 1 9 363.28 26.77
-5 -1 9 392.93 25.15
5 1 -9 318.51 25.1
5 1 -9 309.66 24.18
-5 -1 -9 288.54 24.75
-5 -1 9 282.88 24.08
-5 1 -9 315.49 25.88
5 1 -9 350.91 26.04
-5 1 9 343.59 24.45
5 -1 9 251.64 24.89
-5 1 9 309.81 24.64
-5 -1 9 367.86 25.08
5 -1 -9 331.46 24.73
-5 1 -9 309.32 24.77
-5 1 -10 264.09 22.44
5 1 10 272.53 22.93
5 -1 10 297.88 21.74
-5 -1 10 296.75 22.05
5 1 -10 242.6 21.89
5 1 -10 290.77 23.09
5 1 10 313.35 23.63
5 -1 10 278 22.61
-5 -1 10 317.09 22.14
-5 1 -10 274.27 21.93
5 1 -10 261.8 22.24
5 1 10 262.56 22.35
-5 -1 -10 292.75 22.89
5 -1 10 295.69 21.88
-5 1 10 273.05 23.42
5 1 -10 256.54 22.2
-5 1 10 278.8 21.92
5 1 -10 261.59 21.38
-5 1 -10 298.13 23.38
5 -1 -10 284.63 22.19
5 -1 -10 292.48 21.94
-5 -1 10 225.06 21.2
-5 -1 10 309.18 21.98
-5 1 -10 308.19 22.21
5 1 11 152.23 13.01
-5 1 -11 138.3 12.38
5 -1 11 139.57 11.51
-5 -1 11 143.92 11.86
5 1 -11 117.55 11.68
5 1 -11 135.61 12.92
-5 -1 11 151.59 11.92
5 1 -11 124.39 12.06
5 -1 -11 123.15 11.8
-5 1 -11 143.16 11.94
-5 -1 11 138.3 11.67
5 1 11 156.12 12.59
5 -1 11 155.49 11.8
-5 1 11 145.17 11.8
5 1 -11 125.08 11.19
-5 -1 -11 140.04 12.75
-5 -1 11 119.22 11.14
5 -1 -11 135.35 11.76
-5 1 -11 164.81 13.42
-5 1 11 140.46 13.38
5 1 11 143.51 13.24
-5 1 -11 146.86 12.03
5 -1 -12 145.79 11.85
-5 1 -12 145.9 12.48
5 1 12 131.26 12.8
5 -1 12 136.49 11.51
-5 1 12 146.56 11.86
5 -1 -12 132.42 11.94
-5 1 -12 139.24 11.81
5 1 -12 142.55 12.39
5 1 12 135.5 12.32
-5 -1 -12 130.91 12.44
-5 -1 12 154.51 11.88
-5 1 12 131.32 13.32
5 1 -12 118.5 11.18
5 1 12 142.13 13.17
-5 1 -12 131.21 12.9
5 1 -12 177.09 13.53
-5 1 -12 123.98 11.8
-5 1 -13 131.03 12.44
-5 1 13 151.28 14.23
5 1 13 159.38 13.66
5 -1 13 141.44 11.94
5 -1 -13 139.17 12.12
-5 1 13 137.9 12.02
5 -1 -13 142.56 12.37
-5 -1 -13 166.94 13.33
5 1 -13 138.56 12.59
-5 1 -13 139.67 12.33
-5 1 -13 137.18 13.38
5 1 -13 142.33 11.78
5 1 13 145.54 12.79
5 1 13 135.11 13.43
-5 -1 13 137.27 12.03
5 1 14 39.51 5.74
5 1 14 26.52 5.21
5 -1 -14 39.75 4.64
-5 1 14 42.53 4.5
-5 -1 -14 47.99 5.77
-5 1 14 32.09 6.05
-5 1 -14 44.8 6.04
-5 1 -14 36.77 4.91
5 -1 -14 28.7 4.52
5 -1 14 41.54 4.38
5 1 -14 29.05 3.85
5 1 -14 30.51 4.34
5 1 -14 20.94 4.38
-5 -1 14 39.57 4.47
-5 1 -14 52.36 5.28
-5 1 -15 27.07 4.16
-5 1 15 29.36 3.82
5 1 15 20.12 4.49
5 1 -15 22.62 3.38
5 1 15 25.34 4.81
5 1 -15 25.2 3.69
-5 1 -15 17.22 4.28
5 -1 -15 31.32 4.28
-5 -1 15 20.17 3.76
-5 1 15 32.19 6.01
-5 -1 -15 27.96 4.66
-5 1 -15 28.17 4.29
5 1 -15 26.74 4.5
5 -1 -15 29 3.87
-5 1 -16 24.19 3.89
-5 1 16 11.92 3.61
5 1 16 25.54 5.08
5 1 -16 18.82 3.09
5 1 16 19.54 4.35
-5 -1 -16 18.93 4.58
-5 1 -16 24.03 4.22
-5 1 -16 17.78 4.24
5 -1 -16 26.87 3.88
-5 -1 16 18.5 3.55
-5 -1 -16 21 4.55
-5 1 16 19.22 3.3
5 1 -16 24.28 3.66
-5 1 16 12.13 4.61
5 1 -16 15.22 3.78
5 1 -16 25.5 4.07
5 1 17 75.51 9.13
-5 -1 17 94.41 8.26
-5 1 -17 72.24 9.01
-5 -1 -17 84.63 8.85
-5 1 17 69.87 9.85
-5 1 17 72.48 7.52
-5 1 17 73.99 7.63
5 -1 -17 80.01 8.09
5 1 -17 82.04 8.55
5 1 -17 79.27 7.43
5 1 -17 72.72 7.58
-5 -1 -17 75.38 9.16
5 1 17 70.2 9.06
5 1 -17 83.68 8.29
-5 1 -17 93.53 8.48
-5 1 -17 78.14 8.14
-5 1 17 82.3 8.22
-5 1 -18 22.28 3.75
5 1 -18 21.5 3.25
5 1 18 16.78 4.45
-5 1 18 13.95 3
-5 1 -18 20.94 3.88
5 -1 -18 16.03 3.59
-5 1 -18 18.28 4.45
-5 1 18 16.67 4.85
5 1 -18 9.33 3.34
-5 1 18 21.09 3.4
-5 -1 -18 16.05 4.51
-5 -1 -18 22.54 4.28
5 1 -18 15 3.59
5 1 18 18.92 4.11
5 1 19 40.92 6.53
-5 -1 -19 41.52 6.39
5 -1 -19 44.73 5.79
-5 -1 -19 48.16 6.79
-5 1 -19 51.86 6.04
5 1 -19 46.86 5.18
5 1 19 55.31 6.42
-5 1 19 40.79 5.06
-5 1 19 35.24 7.22
5 1 -19 38.99 6.03
-5 1 -19 29.55 6.19
5 1 -19 41.16 5.84
-5 1 -19 54.54 6.17
5 -1 -20 171.32 14.76
-5 -1 -20 193.11 15.88
-5 1 -20 169.68 15.96
5 1 -20 164.22 15.04
5 1 20 178.94 15.27
-5 1 20 165.53 16.94
-5 1 20 170.15 14.1
-5 -1 -20 175.03 16.05
5 1 20 162.24 15.72
5 1 -20 137.65 13.6
5 1 -20 139.19 14.36
-5 1 -20 176.9 14.61
-5 1 -20 172.36 14.77
5 1 21 73.62 8.83
-5 1 -21 60.79 8.32
-5 1 -21 61.6 7.02
-5 1 21 58.58 7.19
5 1 -21 58.92 7.54
5 1 21 68.66 7.73
-5 -1 -21 58.59 7.75
5 -1 -21 59.93 7.16
-5 -1 -21 58 7.96
-5 1 21 59.9 6.6
-5 1 21 57.39 8.98
5 1 -21 55.5 6.35
5 1 -21 66.07 7.47
-5 1 -21 57.31 7.12
-5 1 -22 10.32 3.32
5 1 -22 9.66 2.67
5 1 22 7.24 3.51
-5 1 -22 12.5 3.44
-5 -1 -22 10.45 3.94
-5 1 22 11 4.68
-5 -1 22 10.22 3.17
-5 1 22 10.27 3.44
5 1 -22 11.8 3.85
5 -1 -22 8.94 3.19
-5 1 -22 13.38 4.39
-5 -1 -22 5.63 3.02
5 1 22 16.5 3.95
5 1 -22 6.57 3.16
-5 1 -23 18.84 3.84
5 1 -23 16.83 3.23
5 1 23 12.4 4.54
5 1 -23 8.81 3.77
-5 1 -23 21.99 4.01
-5 -1 -23 16.91 4.56
5 1 23 15.77 4.03
-5 -1 23 12.56 3.54
-5 1 23 14.49 3.83
5 -1 -23 9.93 3.5
-5 1 -23 21.55 5.2
-5 1 23 18.5 5.66
5 -1 23 13.77 3.7
-5 -1 -23 19.66 4.7
5 1 -23 10.79 3.37
-5 1 -24 27.99 4.81
5 1 -24 29.47 4.36
5 1 24 24.62 5.78
5 -1 24 29.58 5.04
5 -1 -24 24.43 4.82
-5 1 -24 30.77 4.84
-5 -1 -24 37.95 6.32
-5 -1 24 24.33 4.68
-5 1 24 23.31 4.87
-5 -1 -24 30.82 5.66
-5 1 24 34.38 7.32
5 1 24 33.59 5.45
5 1 -24 26.21 5.19
-5 1 -24 33.88 6.43
-5 1 -25 10 3.34
5 1 -25 6.87 2.76
5 1 25 5.31 3.96
5 -1 -25 3.19 2.64
-5 1 -25 6.55 3.16
-5 -1 -25 6.51 3.71
-5 1 -25 2.75 3.77
-5 -1 25 4.22 2.48
-5 -1 -25 4.65 3.47
5 1 25 6 3.48
-5 1 25 4.41 5.02
5 -1 25 10.37 3.46
-5 1 25 5.28 3.07
5 1 -25 8.9 3.64
-5 1 -26 7.87 3.76
5 1 -26 11.53 3.07
5 1 26 24.53 5.73
-5 -1 -26 3.21 3.81
-5 1 -26 11.18 3.59
-5 -1 -26 2.51 3.52
-5 1 26 -4.53 4.41
5 -1 -26 8.58 3.4
-5 1 26 12.56 3.68
5 1 -26 7.65 3.88
-5 1 -26 2.84 3.88
5 1 26 4.81 3.09
5 -1 26 4.4 3.25
-5 -1 26 3.81 3.25
5 1 -27 28.41 4.36
-5 1 27 17.69 4.88
5 1 27 13.05 5.09
-5 1 -27 30.48 5.09
-5 1 -27 29.78 4.62
-5 -1 -27 28.48 6.02
5 -1 27 25.27 4.98
-5 1 -27 16.54 5.07
-5 -1 27 26.05 4.74
-5 -1 -27 23.98 5.55
5 1 -27 25.59 5.48
-5 1 27 23.22 6.37
5 1 27 24.06 5.27
5 -1 -27 33.81 5.54
-5 1 -28 28.12 4.97
5 1 -28 28.41 4.4
5 1 28 20.07 5.61
-5 -1 -28 29.82 6.19
-5 -1 -28 19.52 5.37
-5 1 -28 30.1 4.86
-5 1 28 29.75 7.18
-5 -1 28 22.04 4.8
-5 1 28 24.5 5.11
5 1 -28 27.55 5.85
-5 1 -28 28.01 6.24
5 -1 -28 22.35 5.1
5 1 28 18.94 4.72
5 -1 28 28.46 5.42
5 1 29 53.86 8.86
5 1 29 68.96 8.49
-5 1 -29 55.66 7.03
-5 -1 29 59.4 7.34
-5 -1 -29 63.17 8.77
-5 1 29 42.3 7
5 -1 -29 53.45 7.75
5 1 -29 61.01 8.56
-5 -1 -29 76.57 9.43
-5 1 29 49.98 9.46
5 -1 29 56.52 7.94
5 1 -29 63.44 7.05
-5 1 -29 46.28 8.45
-5 1 -29 75.87 8.17
-5 1 30 51.15 9.99
-5 -1 30 71.78 8.33
-5 1 30 61.98 8.3
5 1 30 88.46 9.53
5 -1 -30 79.07 9.31
-5 -1 -30 87.1 10.41
5 1 -30 59.19 9.12
-5 1 -30 72.89 10.18
5 -1 30 58.83 8.21
5 1 -30 73.85 7.93
-5 -1 -30 50.55 8.98
5 1 30 103.28 11.05
-5 1 -30 75.13 8.77
-5 1 -31 19.08 4.3
5 1 31 12.32 5.25
5 -1 31 18.71 4.71
-5 -1 -31 11.54 5.14
-5 1 -31 14.1 5
5 1 31 10.18 4.39
-5 1 31 15.44 4.11
-5 -1 31 7.86 3.56
5 -1 -31 5.66 3.27
5 1 -31 10.29 4.34
-5 1 31 16.6 6.49
5 1 -31 19.65 3.96
-5 1 -32 6.97 3.58
5 1 -32 8.5 3.12
5 1 32 10.5 4.68
5 -1 32 1.48 2.96
-5 1 -32 3.34 3.72
-5 -1 -32 5.91 3.84
-5 1 32 9.14 5.21
5 1 -32 0.96 3.33
-5 1 32 10.28 3.87
5 1 32 5.63 3.67
-5 -1 32 2.47 2.82
5 1 -33 30.68 4.86
5 1 33 19.33 6.04
-5 1 -33 19.39 5.88
-5 1 -33 19.78 4.69
-5 1 33 21.81 4.92
5 1 -33 31.06 6.2
-5 1 33 20.01 7.11
-5 -1 33 22.17 4.59
5 -1 33 19.71 5
-5 -1 -33 22.25 5.85
5 1 33 21.48 5.59
-5 1 -34 32.49 5.73
5 1 -34 30.36 5.25
5 1 34 28.53 6.9
5 1 34 27.97 6.23
-5 -1 -34 30.1 6.76
-5 1 -34 35.07 7.08
-5 1 34 31.34 8.15
5 1 -34 20.56 5.83
5 -1 34 37.32 6.49
-5 -1 34 29.72 5.44
-5 1 34 30.85 5.91
-5 1 -35 5.16 3.63
-5 1 -35 4.79 4.55
5 1 -35 5.19 3.12
-5 1 35 9.56 3.96
-5 -1 -35 9.56 4.75
-5 -1 35 10.6 3.85
5 1 -35 9.63 4.78
5 1 35 2.24 4.38
-5 1 35 13.9 5.69
5 -1 35 9.56 4.28
5 1 35 5.21 3.82
5 1 -36 27.74 4.92
5 1 36 8.01 5.04
-5 -1 -36 21.75 5.94
5 1 36 14.23 5.57
-5 1 -36 20.29 5.08
-5 1 36 15.02 4.98
5 1 -36 19.72 5.98
-5 1 -36 17.16 6.1
-5 1 36 12.76 6.79
5 -1 36 13.86 5.08
-5 -1 36 20.3 5.02
5 -1 -36 19.03 5.64
5 -1 37 5.84 3.73
-5 1 -37 12.95 4.08
5 1 37 -1.17 4.65
-5 -1 -37 5.56 4.44
-5 1 37 6.91 3.82
5 1 37 10.92 4.66
-5 1 37 2.89 6.17
-5 -1 37 14.52 4.36
5 1 -37 3.42 3.94
-5 1 -37 -1.25 4.18
5 -1 -37 2.06 4
5 1 -37 1.81 2.71
-5 1 -38 7.75 3.63
5 1 -38 11.8 3.94
5 1 38 3.56 5.81
-5 -1 -38 13.64 5.28
-5 1 38 6.28 4.17
-5 -1 38 5.66 4.3
5 1 -38 4.66 5.11
-5 1 -38 5.12 5.37
-5 1 38 7.36 6.56
5 -1 -38 8.44 4.82
5 1 38 4.65 5.58
5 -1 38 11.09 5.01
-5 1 -39 32.33 6.05
5 1 -39 34.26 5.66
5 1 39 18.14 6.8
-5 -1 -39 30.16 7.25
-5 1 39 14.96 7.24
5 1 39 30.45 6.69
5 1 -39 36.24 7.6
-5 1 39 40.09 6.62
-5 -1 39 30.33 6.1
-5 1 -39 36.61 7.75
5 -1 39 26.13 6.13
5 -1 -39 24.86 6.45
-5 1 -40 3.99 3.76
5 1 -40 0.65 3.1
5 1 40 11.08 6.38
-5 -1 -40 -3.55 4.82
-5 1 40 -5.98 6.51
5 1 -40 7.4 5.59
-5 1 40 0.82 4.77
-5 -1 40 4.43 4.15
5 -1 -40 3.31 4.71
5 1 40 0.97 5.6
5 1 41 45.01 9.07
-5 1 41 57.7 11.31
5 -1 -41 49.68 8.86
-6 -1 0 98.95 9.15
6 1 0 99.55 9.51
-6 1 0 89.27 8.67
6 -1 0 114.08 8.99
-6 -1 0 106.32 9.53
-6 1 0 125.76 9.84
6 1 0 112.06 9.83
6 -1 0 109.52 9.4
6 1 0 105.46 9.66
-6 -1 0 93.93 10.15
-6 1 0 90.07 8.38
6 1 0 101.44 9.05
-6 -1 0 118.11 8.88
-6 1 0 102.35 9.14
6 1 0 76.8 7.99
6 -1 0 103.59 9.68
6 -1 0 87.21 8.39
-6 1 0 100.46 9.15
-6 1 0 103.84 9.45
-6 -1 1 314.89 25.28
-6 -1 -1 294.71 25.44
6 1 1 302.21 25.82
-6 1 1 328.26 25.17
6 -1 1 338.82 25.21
6 -1 -1 321.09 25.21
-6 -1 1 381.19 26.03
-6 1 -1 339.56 25.85
-6 1 1 361.3 25.91
6 1 1 346.29 26.05
6 1 -1 345.02 25.91
6 -1 1 316.64 25.58
6 -1 -1 384.14 25.96
-6 1 1 337.4 25.39
-6 -1 -1 345.39 26.81
6 -1 1 333.65 26.09
6 -1 -1 359.31 26.11
6 1 1 318.07 25.81
6 1 -1 349.28 25.45
-6 1 -1 330.11 25.72
-6 1 1 346.91 26.01
-6 1 -1 334.76 25.45
-6 -1 -1 308.92 24.85
-6 1 -1 319.37 25.51
-6 1 1 340.67 25.59
-6 -1 1 359.69 25.22
-6 1 -1 293.74 25.01
6 1 -1 304.04 24.48
6 -1 -1 297.41 24.67
6 -1 1 288.09 24.76
6 1 1 273.61 24.34
-6 1 -1 333.65 24.84
-6 1 1 325.91 24.8
6 1 -1 317.71 25.84
6 -1 2 517.32 39.46
-6 -1 -2 521.9 39.31
6 1 2 505.98 39.53
-6 1 -2 485.21 38.61
6 1 -2 535.31 39.49
-6 1 2 511.44 38.69
6 -1 2 489.68 38.56
-6 1 -2 507.34 39.3
-6 -1 2 539.51 39.3
-6 1 2 584.33 39.47
6 1 2 529.78 39.6
6 -1 2 511.74 39.22
6 1 -2 561.99 39.47
-6 -1 -2 498.74 40.16
6 -1 2 512.21 39.64
6 1 2 543.71 39.56
-6 1 -2 521.78 39.25
6 1 -2 494.82 38.79
-6 1 2 519.78 39.51
6 1 -2 586.47 40.27
-6 -1 -2 510.34 38.4
-6 1 2 518.84 39.02
6 1 -2 498.32 38.08
-6 1 2 552.67 38.95
6 -1 -2 437.07 38.07
6 -1 2 433.96 38.3
-6 1 -2 487.02 39.01
-6 1 -2 501.09 38.33
-6 1 2 501.54 38.3
6 -1 -2 569.18 39.68
-6 -1 2 537.31 38.72
6 -1 3 45.04 5.71
-6 -1 -3 54.08 5.95
6 1 3 43.62 5.87
6 1 -3 50.39 5.72
-6 1 3 47.47 5.14
6 -1 3 44.7 4.93
-6 1 3 51.4 5.32
-6 1 -3 35.49 4.86
-6 -1 3 65.39 6.11
-6 1 3 54.77 5.79
6 -1 3 46.63 5.62
6 1 -3 66.21 6.09
6 1 3 37.12 5.72
6 1 -3 44.83 5.5
6 1 3 47.89 5.76
6 -1 -3 52.09 5.8
-6 1 -3 44.01 5.9
6 1 -3 42.77 4.51
-6 -1 -3 46.36 4.72
6 1 -3 46.45 6.18
6 -1 3 34.62 4.69
-6 1 -3 50.48 5.53
-6 1 3 46.23 4.68
-6 -1 3 47.77 4.32
-6 1 3 57.45 5.54
-6 1 3 49.02 5.92
-6 1 -3 42.22 4.67
-6 -1 3 55.17 5.32
-6 -1 -3 37.53 6.57
6 -1 3 42.85 5.61
-6 1 4 517.99 35.76
-6 -1 -4 435.59 36.18
-6 1 -4 442.86 35.44
6 1 4 462.02 36.46
6 1 -4 478.94 36.1
-6 1 4 491.92 35.6
6 -1 4 455.77 35.36
6 -1 4 363.53 35.1
-6 -1 4 510.04 36.14
6 1 4 498.53 36.64
-6 1 4 507.59 36.07
6 -1 4 474.75 36.18
-6 -1 -4 494.73 37.3
-6 -1 4 465.84 35.57
6 1 4 484.06 36.33
6 -1 -4 499.82 36.3
-6 1 -4 517.97 37.03
6 1 -4 449.47 35.64
-6 -1 -4 469.56 35.08
-6 1 -4 462.71 35.91
6 1 -4 520.34 36.99
6 1 -4 442.57 34.94
-6 -1 4 442.79 34.68
-6 1 4 478.96 36.55
-6 1 -4 452.85 35.16
-6 1 4 465.91 35.1
-6 1 4 480.31 35.77
6 -1 4 463.9 36.35
6 -1 4 464.3 35.99
-6 1 -5 724.76 52.85
-6 -1 -5 633.22 53.6
6 1 -5 714.78 53.57
6 -1 5 690.42 52.82
-6 1 5 733.51 54.25
6 -1 5 573.27 52.67
6 1 5 755.78 54.17
6 -1 5 748.15 53.82
-6 1 -5 687.94 52.97
6 1 5 726.33 54.07
-6 -1 -5 742.67 54.83
-6 1 -5 809.6 54.72
6 -1 -5 778.26 53.82
6 1 -5 695.89 53.21
6 -1 5 668.08 53.24
-6 -1 -5 745.09 52.57
-6 1 -5 703.71 53.42
-6 -1 5 721.28 53.17
-6 1 5 728.46 53.25
6 1 -5 671.52 52.46
6 1 -5 723.35 54.25
6 1 5 760.93 53.91
-6 -1 5 755.26 53.51
-6 1 5 725.59 53.05
-6 -1 5 689.28 52.23
-6 1 -5 660.75 52.57
-6 1 5 724.86 52.63
6 -1 5 692.08 53.88
-6 -1 -6 1119.77 94.89
6 1 6 1281.02 95.29
6 -1 6 1296.99 94.1
6 1 -6 1269.08 94.71
6 1 6 1325.89 95.37
6 -1 6 1339.24 95.09
6 1 6 1322.76 95.06
-6 -1 -6 1335.39 96.09
-6 1 -6 1324.21 95.74
-6 1 6 1269.22 95.44
-6 -1 -6 1358.78 93.74
-6 1 -6 1289.32 94.67
6 1 -6 1218.33 93.71
-6 -1 -6 1245.86 93.36
6 1 -6 1327.89 95.56
-6 -1 6 1214.11 94.31
-6 -1 6 1191.83 93.44
6 -1 6 1298.32 94.55
-6 1 6 1333.44 93.88
-6 1 6 1205.49 94.27
6 -1 6 1288.78 95.31
6 1 -6 1230.29 94.45
-6 1 -6 1350.79 94.17
-6 1 -7 326.87 23.68
6 1 7 297.91 24.63
6 -1 7 296.3 23.43
6 1 -7 289.72 23.99
6 1 -7 277.37 23.8
6 1 7 335.51 24.98
6 -1 7 321.76 24.61
-6 1 7 303.61 23.74
-6 -1 -7 302.47 25.34
6 1 -7 299.65 24.17
6 1 7 312.21 24.42
-6 1 7 310.45 25.02
-6 -1 7 283.92 23.71
6 1 -7 305.12 24.8
-6 1 -7 320.51 25.25
-6 1 -7 314.24 24.11
-6 -1 7 267.55 22.84
-6 1 7 321.77 23.3
6 -1 7 286.05 24.54
-6 1 -8 459.99 32.4
6 1 8 476.43 33.73
6 -1 8 446.86 32.21
6 1 -8 410.22 32.65
6 1 8 436.91 33.48
6 -1 8 503.46 33.58
6 1 -8 419.36 32.84
-6 -1 -8 437.94 34.18
-6 1 8 459.16 33.89
6 -1 8 401.38 33.33
6 1 -8 395.35 32.53
6 -1 -8 412.98 32.38
-6 1 8 410.38 32.31
-6 -1 8 383.02 32.34
6 1 -8 379.15 31.6
-6 1 -8 467.39 33.99
-6 -1 8 385.07 31.55
6 1 -8 418.48 33.45
-6 1 -9 386.45 26.93
6 -1 -9 325.34 26.69
6 1 9 369.66 28
6 -1 9 355.59 26.56
6 1 -9 334.4 27
6 1 9 364.14 27.96
6 -1 9 356.92 27.64
-6 -1 9 296.56 25.9
-6 -1 9 306.39 26.72
-6 -1 -9 370.25 28.73
6 1 -9 348.15 27.28
-6 -1 -9 419.4 28.22
6 1 -9 310.7 26.96
-6 1 9 359.29 26.84
-6 1 -9 387.99 28.49
6 1 -9 327.82 26.1
6 -1 9 347.1 27.95
-6 1 9 332.64 28.01
6 1 -9 330.31 27.79
-6 1 -10 193.47 14.84
6 1 -10 168.79 15.63
6 1 10 193.92 16.52
6 1 10 202.94 16.2
6 -1 10 198.76 14.62
6 1 -10 160.69 14.75
-6 -1 10 142.94 14.5
6 -1 10 199.72 15.78
-6 -1 -10 213.57 16.15
-6 -1 -10 190.71 16.7
-6 1 -10 185.81 16.11
6 -1 10 161.67 15.64
-6 1 10 154.47 14.41
6 -1 -10 178.28 14.72
-6 1 10 163.5 15.89
6 1 -10 190.32 15.32
6 1 -10 152.4 13.94
-6 1 -11 147.91 12.51
6 1 11 127.55 13.25
6 1 -11 165.69 13.96
6 -1 11 151.19 12.3
6 1 -11 143.34 12.69
6 -1 11 160.54 13.53
-6 -1 -11 129.89 13.98
6 -1 -11 143.61 12.76
6 1 -11 137.96 12.84
6 1 -11 129.8 11.79
-6 -1 -11 146.65 13.34
-6 -1 11 161.41 12.63
-6 1 11 141.38 13.9
-6 1 11 136.04 12.31
6 -1 -11 144.93 12.47
-6 1 -11 150.51 13.9
6 1 11 142.95 13.9
-6 1 -12 154.68 14.23
-6 1 -12 154.3 14.65
6 1 12 165.1 15.42
6 -1 12 164.4 14.09
6 1 -12 163.33 14.58
6 1 -12 183.77 15.68
6 -1 12 148.41 14.87
6 -1 -12 195.48 15
6 1 -12 166.61 14.81
-6 1 -12 147.61 15.34
-6 -1 12 184.98 14.44
-6 1 12 201.02 16.48
-6 -1 -12 170.56 15.39
6 1 -12 162.28 13.79
-6 1 12 189.16 14.5
6 -1 -12 190.33 14.61
6 1 12 155.39 15.59
-6 1 -13 122.03 10.09
6 1 13 123.94 11.18
6 -1 13 102.31 9.52
6 1 -13 111.52 11.06
6 1 -13 95.47 10.14
-6 -1 13 107.78 9.76
-6 1 13 104.8 9.71
6 1 -13 103.09 9.22
-6 -1 -13 114.61 10.86
6 -1 -13 115.8 10.22
-6 1 13 86.6 10.94
-6 1 -13 105.58 11.18
-6 1 -13 98.62 10.11
6 -1 -13 100.92 9.71
6 1 13 106.09 11.34
-6 1 -14 419.32 34.77
-6 1 -14 421.22 35.07
6 1 14 465.12 36.21
-6 1 14 475.38 36.94
6 1 -14 494.87 36.4
6 1 14 465.75 36.7
6 1 -14 463.62 35.5
6 -1 -14 481.32 35.29
-6 1 -14 430.59 36.28
-6 -1 -14 476.31 35.99
-6 -1 14 468.56 34.85
-6 1 14 443.93 34.75
6 1 -14 415.7 34.18
6 -1 -14 437.61 34.78
6 1 -15 16.25 2.67
6 1 15 8.01 3.5
6 1 15 5.26 3.18
6 -1 -15 9.01 2.94
-6 1 -15 2.2 2.13
-6 -1 15 13.72 3.17
-6 1 -15 5.06 3.13
-6 -1 -15 8.57 3.4
-6 1 15 5.53 3.55
-6 1 15 4.04 2.33
-6 1 -15 8.69 3.14
6 1 -15 6.55 3.54
6 -1 -15 7.12 2.66
6 1 -15 7.44 2.89
-6 1 -16 324.67 25.93
6 1 16 329.13 26.96
6 -1 -16 311.91 25.51
-6 -1 -16 336.96 26.69
6 1 -16 319.74 26.84
6 1 -16 314.31 26.08
-6 1 -16 347.39 27.4
-6 -1 16 319.71 25.5
-6 1 16 287.51 27.14
-6 1 -16 301.36 25.56
-6 1 16 313.73 25.43
6 1 -16 305.37 24.94
6 -1 -16 354.33 26.12
6 1 16 342.74 27.63
-6 1 -17 42.52 5.5
6 1 17 38.86 6.93
6 1 17 45.92 6.66
-6 1 -17 33.79 6.36
-6 1 -17 31.42 5.27
6 -1 -17 49.59 6
-6 -1 -17 46.2 6.43
6 1 -17 45.35 5.93
-6 1 17 46.44 5.29
-6 1 17 42.4 7.16
-6 1 17 43.65 5.35
6 1 -17 39.71 4.86
-6 1 -18 415.69 32.93
6 1 18 435.51 34.32
-6 1 18 394.11 34.75
-6 1 18 393.93 32.43
-6 1 18 405.15 32.62
6 1 -18 404.7 32.17
6 -1 -18 446.68 33.24
6 1 -18 418.66 33.46
6 1 18 431.09 34.73
6 1 -18 405.34 32.94
-6 -1 -18 443.99 34.09
-6 1 -18 433.17 34.61
-6 1 -18 424.66 32.95
-6 1 -19 243.25 20.14
6 1 19 235.56 21.19
-6 1 -19 241.02 21.59
6 1 19 253.04 21.96
-6 1 19 234.93 22.02
-6 1 19 247.94 19.69
6 1 -19 223.05 19.23
-6 -1 -19 264.85 21.28
6 -1 -19 256.19 20.31
6 1 -19 234.07 20.54
6 1 -19 216.8 19.84
-6 1 -19 236.51 20.05
-6 1 -20 89.87 9.71
6 1 20 101.43 11.06
-6 1 -20 100.76 11.46
-6 1 20 108.11 9.55
-6 1 20 98.2 11.85
6 1 -20 100.95 10.37
6 1 -20 98.47 9.93
-6 -1 -20 83.38 10.32
6 1 -20 101.92 9.2
6 -1 -20 102.8 10.13
-6 1 -20 85.33 9.57
-6 1 -21 56.06 6.88
6 1 21 58.24 8.14
6 -1 -21 67.38 7.49
-6 1 21 42.03 7.99
-6 -1 -21 61.81 8.22
6 1 -21 45.52 7.05
-6 1 21 55.33 6.54
6 1 -21 53.04 6.14
-6 1 -21 53.62 8.02
-6 -1 -21 70.52 8.23
-6 1 -21 67.3 7.21
-6 1 -22 35.01 5.05
6 1 -22 26.05 4.27
6 1 22 27.78 5.9
-6 1 -22 39.64 5.38
-6 1 -22 34.64 6.24
-6 -1 -22 26.19 5.67
6 -1 -22 39.44 5.51
-6 -1 -22 19.62 4.92
-6 1 22 42.08 7.38
-6 1 22 34.32 4.78
6 1 -22 34.29 5.73
-6 1 -23 24.62 4.34
6 1 -23 22.75 3.75
6 1 23 29.27 5.64
-6 1 -23 14.77 3.67
-6 1 -23 18.25 4.87
-6 1 23 16.66 4.27
-6 -1 -23 15.48 4.68
-6 -1 -23 16.35 4.55
-6 1 23 26.69 6.08
6 -1 -23 21.7 4.33
6 1 -23 15.54 4.31
-6 1 -24 17.09 4.01
6 1 -24 21.78 3.83
6 1 24 29.56 5.86
-6 -1 -24 15.2 4.72
-6 1 -24 25.27 4.35
-6 -1 -24 22.56 5.29
-6 1 24 12.86 4.25
6 1 -24 24.25 5.06
-6 1 -24 13.16 5.01
-6 1 24 23.6 6.2
6 -1 -24 19.96 4.41
-6 1 -25 138.18 12.83
6 1 25 128.14 13.99
-6 -1 25 138.61 12.74
-6 1 25 151.78 13.27
6 1 -25 135.39 13.54
-6 1 -25 107.12 13.73
-6 -1 -25 135.58 13.81
-6 1 25 109.84 14.43
-6 -1 -25 101.18 13.13
6 1 -25 137.47 12.06
6 1 25 127.95 13.16
6 -1 -25 121.85 12.77
-6 1 -25 147.14 12.6
-6 1 -26 13.69 3.8
6 1 -26 14 3.27
6 1 26 14.57 4.51
-6 1 -26 10.9 4.3
-6 -1 -26 9.68 4.36
-6 -1 26 11.22 3.58
-6 1 26 13.57 4.11
6 -1 -26 9.64 3.71
6 1 -26 12.74 4.09
-6 -1 -26 8.5 4.08
6 1 26 10.34 3.75
-6 1 26 4.5 4.43
-6 1 -27 4.47 2.96
6 1 -27 2.41 2.11
6 1 27 7.45 4.54
6 -1 -27 0.72 2.63
-6 -1 -27 8.12 3.59
-6 -1 27 3.03 2.91
6 1 -27 3.28 3.1
-6 1 -27 -1.02 3.39
-6 -1 -27 1.75 2.81
-6 1 27 3.45 4.46
6 1 27 2.28 3.44
-6 1 27 1.97 3.15
-6 1 -28 8.52 3.31
6 1 -28 6.94 2.9
6 1 28 1.9 3.4
-6 1 -28 7.32 4.75
-6 -1 -28 5.52 3.93
-6 -1 28 -0.61 2.9
-6 1 28 0.67 3.45
6 1 -28 -0.85 2.95
-6 1 28 4.7 4.32
6 1 28 3.12 3.54
-6 -1 -28 4.48 3.75
6 -1 -28 5.95 2.97
-6 1 -29 6.68 3.38
-6 1 29 6.01 4.91
6 1 -29 7.15 2.75
6 1 29 0.99 4.05
-6 -1 -29 7.41 4.3
-6 -1 -29 5.66 3.95
-6 -1 29 5.6 3.2
-6 1 29 2.73 3.24
6 -1 -29 3.87 3.73
6 1 -29 4.44 3.28
-6 1 -29 1.07 3.95
6 1 29 10.39 3.71
-6 1 -30 6.16 3.28
6 1 -30 3.15 2.92
6 1 30 1.01 4.12
6 1 30 -0.82 3.5
-6 -1 -30 1.93 3.65
-6 1 30 2.08 3.15
6 1 -30 2.73 3.34
-6 1 -30 2.2 3.66
-6 1 30 1.23 4.37
-6 -1 30 0.64 2.84
6 -1 -30 1.59 3.17
-6 1 -31 0.7 2.85
-6 1 31 -2.14 3.52
6 1 -31 1.08 2.4
6 1 31 -1.03 4.1
-6 -1 -31 0.99 3.41
-6 -1 31 -0.65 3.05
6 1 -31 -2.84 3.47
-6 1 -31 3.38 4.25
6 1 31 0.84 3.26
-6 1 31 -3.84 4.7
-6 1 -32 9.3 3.8
6 1 -32 4.99 2.84
6 1 32 11.59 5.33
-6 1 32 7.96 3.9
-6 -1 32 9.21 3.92
-6 -1 -32 10.14 4.45
6 1 -32 2.92 3.8
-6 1 -32 5.76 4.61
-6 1 32 3.92 4.54
6 1 32 14.64 4.75
-6 1 -33 10.97 3.98
6 1 -33 4.55 2.94
-6 -1 33 4.04 3.2
-6 1 33 2.94 3.42
6 1 33 4.3 3.97
-6 -1 -33 5.19 4.54
6 1 -33 8.07 4.23
-6 1 -33 5.89 4.47
-6 1 33 14.67 6.18
6 1 33 13.23 4.6
-6 1 -34 35.68 6.14
6 1 -34 29.4 5.26
6 1 34 23.02 6.4
-6 -1 -34 33.95 7.15
-6 -1 34 45.09 6.39
-6 1 34 31.57 6.23
6 1 -34 24.12 6.3
-6 1 -34 39.79 7.88
-6 1 34 48.96 9.44
6 1 34 33.4 6.81
-6 1 -35 59.9 8.12
6 1 35 45.81 8.91
6 1 35 63.22 9.11
-6 -1 -35 52.06 8.92
-6 -1 35 63.19 8.27
-6 1 35 55.75 8.08
6 1 -35 52.57 8.8
-6 1 -35 44.38 8.93
-6 1 35 67.88 11.38
6 -1 35 51.82 8.32
6 1 -35 72.91 8.02
-6 1 -36 28.6 5.58
6 1 -36 22.2 4.78
6 1 36 22.75 6.58
-6 -1 -36 9.97 5.16
-6 1 36 19.52 5.33
6 1 -36 24.5 6.14
-6 1 -36 20.15 6.71
-6 1 36 29.59 7.98
6 1 36 23.42 5.67
6 -1 36 14.52 5.32
-6 -1 36 24.85 5.32
6 1 -37 56.74 6.88
6 1 37 35.89 8.08
-6 -1 -37 32.83 7.73
-6 -1 37 31.7 6.2
-6 1 -37 43.68 8.33
-6 1 37 48.38 7.27
6 1 -37 28.47 6.94
-6 1 -37 51.93 7.42
-6 1 37 28.66 8.64
6 1 37 40.19 7.62
6 -1 37 33.13 6.87
-6 -1 38 16.14 4.81
6 1 -38 15.47 4.36
6 1 38 7.06 5.29
-6 1 -38 10.41 4.28
-6 -1 -38 4.62 4.66
-6 1 38 12.11 4.55
6 1 -38 14.15 5.4
-6 1 -38 14.42 5.88
-6 1 38 15.68 6.75
6 1 38 14.65 5.12
6 -1 38 2.67 3.71
-6 1 -39 88.49 10.12
6 1 39 92.15 11.94
-6 -1 -39 69.47 10.92
-6 -1 39 65.07 9.28
-6 1 39 69.49 12.3
6 -1 39 76.13 10.47
6 1 40 58.32 10.2
-6 1 40 57.27 10.95
7 1 0 3.55 2.84
7 -1 0 7.26 2.4
7 1 0 9.38 2.58
7 -1 0 12.69 2.64
-7 1 0 4.46 2.46
-7 1 0 8.08 2.76
-7 -1 0 9.68 2.24
-7 1 0 7.24 1.93
7 1 1 180.18 15.68
7 1 -1 169.8 15.49
-7 1 -1 179.93 15.17
7 -1 1 165.93 14.76
7 -1 -1 164.27 14.82
7 1 1 181.93 15.7
7 1 -1 203.64 15.89
7 -1 1 183.08 15.46
7 -1 -1 190.29 15.56
-7 -1 -1 206.22 16.67
7 -1 1 139.55 14.24
-7 1 -1 187.15 15.56
-7 -1 -1 180.64 14.65
-7 -1 1 193.03 14.88
-7 1 -1 173.9 15.12
-7 1 1 175.11 15.07
-7 1 1 188.97 15.67
-7 1 -1 187.87 14.37
-7 1 1 190.4 14.41
7 -1 2 66.42 7.53
-7 1 -2 77.37 8.02
7 1 2 85.42 8.88
7 1 -2 88.36 8.76
7 -1 2 75.52 7.87
7 -1 -2 85.78 8.16
-7 1 2 93.81 7.64
7 1 2 95.43 9.06
7 -1 2 104.62 8.98
7 1 -2 97.87 8.99
-7 -1 -2 90.24 9.55
-7 1 2 91.34 8.95
-7 -1 -2 82.75 7.74
-7 -1 2 98.47 8.21
-7 1 -2 80.5 8.23
-7 1 2 91.12 8.34
-7 1 -2 79 8.4
-7 1 -2 77.48 7.42
7 -1 3 46.97 6.26
7 1 3 54.44 6.61
7 1 -3 45.32 5.95
7 -1 3 51.29 5.55
-7 1 3 43.93 6.11
-7 -1 -3 43.19 6.02
7 1 3 58.71 6.96
7 -1 3 68.78 6.7
7 1 -3 58.51 6.37
-7 -1 3 52.32 5.54
7 1 -3 55.78 6.82
-7 1 -3 56.58 5.95
-7 -1 -3 49.67 6.88
-7 -1 -3 60.41 5.45
-7 1 3 37.86 5.35
-7 1 -3 49.3 5.02
-7 1 3 48.85 5.02
7 1 4 52.54 6.31
7 -1 4 42.6 5.1
7 1 -4 40.18 5.47
7 -1 4 51.39 5.97
7 1 4 42.72 6.14
7 1 -4 43.9 6.34
-7 -1 -4 60.83 7.25
-7 1 -4 39.75 5.27
-7 -1 -4 44.98 4.82
-7 -1 4 44.29 5.2
-7 1 4 49.49 5.53
-7 1 4 45.39 5.9
-7 1 -4 46.53 4.74
-7 1 4 46.99 4.74
7 -1 4 49.9 6.15
7 1 5 10.07 3.16
7 1 -5 8.1 2.77
7 -1 5 3.49 1.97
7 -1 5 7.31 2.8
7 1 5 6.2 3.14
7 -1 5 11.07 3.42
-7 -1 -5 4.66 3.55
7 1 -5 9.18 3.65
-7 1 5 7.19 3.16
-7 1 -5 6.5 2.5
-7 -1 -5 9.73 2
-7 1 5 7.43 2.4
-7 1 -5 13.91 3.94
-7 -1 5 9.62 2.46
-7 1 -5 8.04 1.95
-7 1 5 7.7 1.95
7 -1 6 44.07 5.23
7 1 6 41.72 6.05
7 1 -6 41.42 5.54
7 1 6 54.2 6.64
7 -1 6 43.32 5.99
-7 1 -6 51.47 6.63
-7 1 6 50.37 5.55
-7 -1 -6 56.76 7.33
-7 1 6 43.27 6.2
-7 -1 6 48.21 5.48
-7 1 -6 43.09 5.54
7 1 -6 41.17 6.27
-7 1 -6 50.63 4.84
7 -1 6 49.9 6.28
7 -1 7 42.21 4.66
7 1 7 27.52 5.06
7 -1 7 28.28 5.24
7 1 -7 39.7 5.27
7 1 7 35.09 5.71
7 -1 7 40.86 5.69
-7 1 7 37.85 5.65
-7 1 -7 34.86 5.87
-7 -1 7 49.43 5.29
-7 1 7 52.65 5.09
-7 1 -7 37.48 4.99
7 1 -7 47.14 6.25
-7 -1 -7 28.66 5.84
-7 1 -7 31.25 3.96
-7 1 -8 24.93 4.88
7 -1 8 18.09 4.06
7 1 8 30.49 4.95
7 -1 8 26.3 3.75
7 1 -8 28.94 4.34
7 1 8 22.52 4.82
7 -1 8 20.24 4.53
-7 -1 -8 20.04 4.95
7 1 -8 21.36 4.21
-7 -1 8 26.02 4.09
-7 1 -8 29 4.14
-7 1 8 23.17 4.61
-7 1 -8 24.94 3.22
7 1 -8 15.65 4.48
-7 1 8 23.33 3.77
7 1 9 75.91 8.46
-7 1 9 75.59 8.57
7 -1 9 87.96 7.5
7 1 -9 62.66 7.55
7 1 9 68.59 8.53
7 -1 9 94.75 8.86
-7 -1 -9 101.26 10
7 1 -9 65.23 7.74
7 -1 -9 62.79 7.48
-7 1 -9 61.81 7.46
-7 -1 9 66.52 7.41
-7 1 9 80.4 7.52
-7 1 -9 82.95 9.08
7 1 -9 71.65 8.56
-7 1 -9 73.09 6.75
7 -1 9 73.06 8.53
7 1 10 299 23.82
7 1 10 266.29 22.91
7 -1 10 258.15 21.51
7 1 -10 260.61 22.12
7 1 10 260.66 22.88
7 -1 10 267.62 22.67
-7 -1 -10 270.95 23.54
7 1 -10 281.4 22.51
-7 1 -10 288.88 23.5
-7 -1 -10 285.57 23
-7 1 10 279.56 23.21
7 -1 -10 259.85 21.89
-7 1 -10 260.63 22
-7 1 10 288.01 21.89
-7 -1 10 262.34 21.91
7 1 -10 264.25 22.94
7 -1 10 254.07 22.96
7 -1 11 19.95 4.6
7 1 11 17.22 4.41
7 -1 11 21.19 3.54
-7 1 11 21.03 4.47
7 1 -11 12.15 3.44
7 1 11 21.49 4.71
7 -1 11 16.68 4.35
-7 -1 -11 19.99 5.18
7 1 11 16.58 4.32
7 1 -11 21.86 4.11
-7 1 -11 19.28 4.93
7 1 -11 20.94 4.77
-7 -1 -11 17.65 4.26
-7 1 11 26.26 3.8
-7 -1 11 25.05 4
7 -1 -11 22.39 3.99
7 -1 12 34.73 5.72
-7 1 -12 32.85 5.83
7 1 12 33.37 5.3
7 1 -12 24.19 4.31
7 1 12 30.98 5.75
7 1 12 36.55 5.63
7 -1 12 29.97 5.24
-7 -1 -12 45.61 5.92
-7 -1 -12 29.18 5.75
7 1 -12 24.99 4.6
-7 -1 12 30.63 4.42
7 1 -12 37.97 5.55
-7 1 12 21.23 4.94
7 -1 -12 22.29 4.2
-7 1 -12 30.88 4.29
7 -1 -12 24.19 4.54
-7 1 12 25.61 4.1
-7 -1 12 16.91 3.86
-7 1 -13 135.63 12.17
7 1 -13 120.74 13.26
-7 1 -13 130.75 12.59
7 1 13 139.22 13.29
7 1 -13 132.51 12.49
7 -1 13 142.27 13.26
-7 -1 -13 135.71 13.99
7 -1 -13 141.15 12.61
7 1 -13 132.44 12.74
-7 -1 -13 152.62 13.62
-7 -1 13 136.31 12.13
-7 1 13 129.97 12.04
7 -1 -13 130.58 12.18
-7 1 -13 143.03 13.78
-7 1 13 148.78 13.95
7 1 13 133.85 13.86
7 1 -14 17.97 4.78
-7 1 -14 20.22 3.8
7 1 -14 18.82 4.13
-7 1 14 21.16 5.09
7 1 14 18.5 4.21
-7 -1 14 20.56 3.71
-7 -1 -14 25.66 5.16
-7 -1 -14 18.14 5.43
-7 1 14 20.38 3.77
-7 1 -14 19.19 4.15
7 -1 -14 20.62 4.09
-7 1 -14 19.97 4.9
7 1 14 21.09 5.2
7 -1 14 19.29 4.73
-7 1 -15 4.66 2.57
7 1 -15 8.15 2.29
-7 -1 -15 6.94 3.44
7 1 15 7.75 3.38
7 1 15 5 3.3
7 -1 15 11.8 4.17
7 1 -15 8.48 3.88
-7 1 -15 7.82 3.21
7 -1 -15 9.65 3.19
-7 -1 15 9.93 3.07
-7 1 -15 15.04 4.22
-7 1 15 13.14 3.99
-7 1 15 13.2 3.07
7 1 -15 11.11 3.43
-7 1 -16 57.93 6.27
-7 1 16 43.66 7.3
7 -1 -16 43.81 6.1
7 1 16 45.41 7.38
7 1 16 49.55 6.93
7 1 -16 40.56 6.91
-7 1 -16 53.42 7.49
-7 1 -16 46.68 6.32
-7 -1 16 44.71 5.92
7 1 -16 41.52 6.18
-7 -1 -16 52.89 7.14
-7 1 16 53.82 6.09
7 1 -16 48.67 5.4
-7 1 -17 121.78 11.67
-7 1 -17 144.51 12.2
7 1 17 119.82 12.66
7 1 -17 137.57 13.21
7 -1 -17 136.6 12.14
7 1 -17 121.99 12.2
-7 1 -17 113.77 13.06
-7 1 17 129.46 13.81
-7 1 17 110.48 11.36
7 1 -17 110.81 10.82
-7 -1 -17 122.38 12.74
-7 1 17 139.67 11.76
7 1 17 125.82 13.49
-7 1 -18 800.22 63.65
-7 1 -18 848.9 63.85
7 1 18 831.38 64.99
7 1 -18 874.22 65.26
7 1 -18 851.99 64.51
-7 1 -18 870.53 65.71
-7 1 18 848.41 65.86
-7 1 18 875.5 63.64
-7 1 18 781.93 63.49
7 1 -18 786.02 62.91
7 -1 -18 867.5 64.15
-7 -1 -18 909.06 65.23
7 1 18 860.36 66.01
-7 1 -19 119.11 10.98
7 1 19 112.89 12.03
7 1 -19 121.49 12.17
7 -1 -19 101.19 10.93
7 1 -19 93.7 11.01
-7 1 -19 109.93 12.4
-7 -1 -19 136.92 12.65
7 1 19 121.33 12.82
-7 1 19 98.47 12.46
-7 1 19 120.54 10.77
-7 1 19 92.95 10.33
7 1 -19 113.99 10.18
-7 1 -19 109.53 10.79
7 1 20 50.65 7.79
-7 1 -20 42.22 5.84
7 1 20 43.7 6.77
7 1 -20 45.68 7.31
-7 1 -20 44.31 6.06
7 -1 -20 44.09 6.31
-7 1 -20 34.09 6.65
-7 -1 -20 42.28 6.77
-7 1 20 30.42 5.19
-7 1 20 51.02 7.91
7 1 -20 52.07 5.57
7 1 -20 50.76 6.84
-7 1 -21 75.1 8.5
7 1 21 78 9.74
7 1 -21 73.76 9.7
-7 1 21 81.64 10.6
7 -1 -21 85.78 9.09
7 1 -21 76.26 9.04
-7 -1 -21 70.63 9.2
-7 1 21 91.91 8.51
-7 1 -21 73.44 9.79
7 1 -21 73.23 7.71
-7 1 -21 57.5 7.92
-7 1 -22 16.28 3.81
7 1 -22 16.97 3.4
7 1 22 14.24 4.44
-7 1 22 20.11 5.49
-7 1 -22 14.51 4
7 1 -22 25.91 5.49
7 1 -22 15.2 4.34
-7 -1 -22 25.97 5.43
-7 1 22 11.55 3.37
-7 1 -22 15.03 4.73
7 -1 -22 16.04 4.24
-7 1 -23 96.85 10.26
-7 1 23 99.5 9.97
7 -1 -23 97.29 10.49
7 1 -23 86.12 10.68
-7 1 -23 119.21 12.64
-7 -1 -23 108.09 11.68
-7 1 23 88.92 12.26
7 1 23 106.91 11.64
7 1 -23 88.55 9.34
-7 1 -24 89.08 9.62
7 1 24 95.21 10.99
7 -1 -24 78.58 9.69
7 1 -24 79.1 10.16
-7 -1 -24 98.58 11
-7 1 24 92.99 11.94
7 1 -24 91.81 9.01
-7 1 -24 89.25 11.23
-7 -1 -25 8.8 3.84
-7 1 -25 7.57 3.23
7 1 -25 4.31 2.53
7 1 25 1.8 3.67
7 -1 -25 -0.71 3.08
7 1 -25 0.8 3.09
-7 1 25 1.09 3.76
-7 1 -25 7.11 4.04
-7 1 -26 18.12 4.19
7 1 -26 14.3 3.56
7 1 26 19.28 5.35
-7 1 -26 20.94 5.47
-7 1 26 8.91 4.69
-7 1 26 16.44 4.25
7 1 -26 14.84 4.43
7 -1 -26 12.42 4.12
-7 -1 -26 15.62 4.69
-7 -1 -26 27.02 5.67
-7 1 -27 3.98 3.12
7 1 -27 -0.51 2.47
7 1 27 -0.95 3.37
-7 -1 27 -1.3 2.89
7 -1 -27 1.5 2.97
7 1 -27 0.86 3.14
-7 1 -27 1.07 3.56
-7 -1 -27 0.92 3.38
-7 1 27 -1.16 4.13
-7 -1 -27 -5.64 3.74
-7 1 27 -0.7 3.19
-7 1 -28 51.64 7.23
7 1 -28 49.08 6.51
-7 -1 -28 42.34 7.73
7 1 28 51.27 8.31
-7 1 28 63.92 7.95
-7 -1 28 52.46 7.14
7 -1 -28 58.05 7.87
7 1 -28 50.83 7.86
-7 1 -28 65.75 9.44
-7 -1 -28 62.43 8.67
-7 1 28 49.69 9.15
-7 1 -29 16.7 4.31
7 1 -29 12.34 3.3
7 1 29 9.86 4.54
-7 1 29 9.66 5.53
-7 -1 29 13.56 4.21
-7 -1 -29 12.8 5.17
-7 1 29 7.26 3.68
7 -1 -29 14.42 4.46
7 1 -29 4.54 3.61
-7 1 -29 11.21 5.04
-7 1 -30 76.65 8.89
7 1 -30 59.55 7.7
7 1 30 44.2 8.73
-7 -1 30 81.45 9.11
-7 1 30 77.28 9.27
7 -1 -30 71.36 9.12
-7 -1 -30 64.46 9.54
7 1 -30 76.39 9.66
-7 1 -30 70.03 10.18
-7 1 30 68.87 10.96
-7 1 -31 5.08 3.29
7 1 -31 2.26 2.85
7 1 31 -5.12 5.07
-7 -1 -31 4.12 3.88
-7 -1 31 -2.07 3.53
7 1 -31 10.62 4.38
-7 1 -31 1.17 3.76
-7 1 31 5.01 4.98
-7 1 31 -3.76 4.12
-7 1 -32 13.34 4.14
7 1 -32 11.61 3.47
-7 1 32 17.86 6.5
7 1 32 9.39 4.75
-7 -1 32 11.31 4.06
-7 1 32 20.54 5.12
7 1 -32 18.02 5.29
-7 1 -32 15.58 5.83
-7 -1 -32 21.04 5.31
-7 1 -33 24.94 5.45
7 1 -33 26.18 4.98
7 1 33 33.96 7.12
-7 -1 33 27.85 5.68
-7 1 33 36.54 6.27
7 1 -33 29.03 6.79
-7 1 -33 34.25 7.35
-7 1 33 23.38 7.24
-7 -1 -33 29.01 6.54
-7 1 -34 26.99 5.31
7 1 -34 23.16 4.67
7 1 34 20.8 5.92
-7 -1 -34 25.22 6.32
-7 -1 34 18.79 4.92
-7 1 34 15.74 4.94
7 1 -34 11.66 5
-7 1 -34 13.73 5.82
-7 1 34 13.21 6.36
7 1 -35 11.24 4.02
7 1 35 6.68 5.12
-7 -1 -35 15.68 6.04
-7 -1 35 13.28 4.29
-7 1 35 11.25 4.6
7 1 -35 13.17 5.14
-7 1 35 6.72 5.91
-7 1 -35 19.09 6.16
7 1 -36 3.83 3.33
-7 1 36 10.91 6.2
7 1 36 4.53 4.52
-7 -1 -36 3.42 4.2
-7 -1 36 5.96 3.88
7 1 -36 3.36 4.58
-7 1 -36 18.17 6.33
-7 1 36 3.25 3.91
7 1 -37 10.44 4.17
7 1 37 10.35 5.37
-7 -1 -37 20.94 6.25
-7 -1 37 11.39 4.84
-7 1 37 4.11 4.27
7 1 -37 10.43 5
-7 1 -37 14.54 5.57
-7 1 37 8.31 6.2
7 1 38 40.83 8
-7 -1 38 44.56 7.24
-7 1 38 36.52 9.41
7 1 39 17.74 6.14
-7 1 39 27.05 8.05
8 1 0 216.36 18.43
8 -1 0 207.7 17.6
8 1 0 236.93 18.64
8 -1 0 229.13 18.35
-8 -1 0 205.97 17.31
-8 1 0 213.04 17.72
-8 1 0 206.28 16.73
-8 1 0 194.76 18.01
-8 1 1 70.8 7.71
8 1 1 64.14 8.18
8 1 -1 74.27 8.34
8 -1 1 83.32 8.01
8 -1 -1 64.45 7.6
8 1 1 90.81 8.96
8 1 -1 85.04 8.58
8 -1 1 102.56 8.96
8 -1 -1 87.73 8.6
-8 1 1 69.73 8.27
-8 -1 -1 78.33 7.55
-8 -1 1 68.74 7.4
-8 1 -1 71.38 7.84
-8 -1 -1 105.49 9.78
-8 1 -1 81.27 7.02
-8 1 1 73.96 6.97
8 1 2 16.42 3.73
8 1 -2 6.65 2.89
8 -1 2 11.13 2.77
8 -1 -2 6.96 2.67
8 1 2 7.58 3.07
8 -1 2 11.75 3.1
8 1 -2 9.82 2.97
-8 1 2 11.31 2.99
-8 -1 -2 21.54 4.26
-8 1 2 8.84 3.38
-8 1 -2 10.79 2.87
-8 -1 2 9.54 2.58
-8 -1 -2 15.12 2.8
-8 1 -2 9.39 2.14
-8 1 2 8.89 2.12
8 1 3 19.09 4.39
8 1 -3 17.42 3.87
8 -1 3 13.08 3.24
-8 1 3 16.02 3.51
-8 1 3 23.27 4.55
8 -1 3 27.05 4.38
8 -1 3 18.25 4.23
-8 1 -3 16.42 3.64
-8 -1 -3 33.07 5.07
-8 -1 -3 21.03 3.31
8 1 3 32.81 5.02
-8 -1 3 19 3.52
8 1 -3 34.28 4.69
-8 1 -3 16.26 2.69
8 -1 4 218.59 20.99
8 1 4 247.48 21.2
8 1 -4 258.79 20.99
8 -1 4 233.16 20.07
8 1 4 268.95 21.48
8 -1 4 265.59 21.1
-8 1 -4 253.39 20.48
-8 -1 -4 279.74 22.07
-8 1 4 225.77 20.81
8 1 -4 260.27 21.82
-8 -1 -4 240.74 19.72
-8 1 4 236.25 20.22
-8 -1 4 245.09 20.18
-8 1 -4 256.23 19.39
8 1 5 72.18 8.11
8 1 -5 61.58 7.49
8 -1 5 65.1 6.91
8 1 5 68.29 8.06
8 -1 5 85.44 8.09
8 1 -5 44.92 7.65
-8 -1 5 55.33 6.78
-8 -1 -5 97.42 9.34
-8 -1 -5 68.05 6.52
-8 1 5 58.25 7.55
-8 1 -5 61.64 6.99
-8 1 5 61.13 6.86
-8 1 -5 62.99 6.04
8 -1 5 66.44 7.91
8 1 6 52.08 7.54
8 -1 6 50.22 6.52
8 1 -6 68.91 7.51
8 -1 6 49.22 7.59
8 1 6 78.56 8.29
8 -1 6 88.02 8.29
-8 -1 -6 72.85 8.68
-8 1 6 61.39 7.7
8 1 -6 74.5 8.56
-8 -1 6 54.08 6.65
-8 1 -6 67.61 7.11
-8 1 6 59.3 6.75
8 1 7 234.73 21.86
8 -1 7 235.85 20.82
8 1 -7 250.14 21.66
8 1 7 293.05 22.76
8 -1 7 248.99 21.94
-8 -1 -7 305.48 23.39
-8 1 -7 257.19 22.66
-8 -1 7 258.32 21.23
-8 1 -7 241.08 21.2
8 1 -7 296.64 22.95
-8 1 7 256.22 21.14
-8 1 7 281.74 22.42
8 -1 7 268.7 22.6
8 -1 8 59.81 6.13
8 1 -8 52.33 6.62
-8 1 8 52.78 7.43
-8 1 -8 56.92 7.8
-8 1 8 49.68 6.05
8 -1 8 41.85 6.89
8 1 8 47.99 6.99
8 -1 8 70.54 7.44
8 1 8 56.39 7.58
-8 -1 8 38.3 5.91
-8 1 -8 53.57 6.35
8 1 -8 52.72 7.39
-8 -1 -8 58.2 7.88
8 1 9 457.63 36.51
8 -1 9 439.67 35.12
8 1 -9 424.64 35.68
8 1 9 495.49 36.97
8 -1 9 532.86 36.91
8 1 -9 478.44 36.24
-8 -1 -9 518.99 37.61
8 1 -9 464.35 36.77
-8 1 -9 510.56 37.42
-8 1 9 422.69 36.38
-8 1 -9 440.38 35.46
-8 -1 9 399.03 35.21
-8 1 9 425.68 35.21
8 -1 9 440.16 36.72
8 1 10 228.12 19.86
8 1 10 208.83 18.77
8 1 -10 195.23 17.89
8 1 10 216.69 19.07
8 -1 10 231.9 19.03
-8 -1 -10 207.64 19.35
8 1 -10 208.57 18.29
-8 1 -10 212.05 19.26
-8 1 -10 200.79 17.67
-8 -1 10 201.41 17.69
-8 1 10 214.84 17.64
8 1 -10 226.47 19.21
-8 1 10 206.66 18.89
8 -1 10 176.99 18.57
8 1 -11 16.68 4.76
8 -1 11 12.22 4.03
8 1 11 16.6 4.2
8 1 -11 17.64 3.96
8 -1 11 14.59 4.93
8 1 11 19.41 4.79
-8 1 -11 13.51 4.47
-8 -1 -11 13.96 4.78
-8 1 11 13.22 4.3
-8 1 -11 8.95 3.22
-8 1 11 19.03 3.6
8 1 -11 13.83 3.91
-8 -1 11 12.04 3.37
8 1 11 7.25 4.1
8 1 12 90.5 9.98
8 1 -12 85.67 9.21
8 1 12 95.01 10.2
8 -1 12 82.68 9.79
-8 -1 -12 82.29 10.41
8 -1 -12 94.14 9.52
8 1 -12 96.36 9.59
-8 1 -12 103.46 10.74
-8 -1 -12 119.32 10.8
-8 1 12 79.94 9.87
-8 1 -12 78.99 8.75
-8 1 12 72.23 8.51
-8 -1 12 76.98 8.75
8 1 -12 95.79 10.37
8 -1 12 80.09 9.94
8 1 12 77.39 10.23
8 -1 13 5.64 3.56
8 -1 -13 9.46 3.34
8 1 13 5.02 3.37
8 1 -13 9.03 3.31
8 1 13 12.28 4.91
8 1 -13 17.19 5.05
-8 1 13 12.22 3.19
-8 -1 -13 6.02 4.36
8 1 -13 6.2 3.12
8 -1 13 11.02 4.54
-8 -1 -13 4.4 3.9
-8 1 -13 6.07 2.94
-8 1 13 9.4 4.16
-8 1 -13 9.9 4.32
-8 -1 13 6.87 2.96
8 1 13 8.31 3.91
-8 1 -14 100.11 9.64
8 1 14 83.74 10.03
8 -1 14 117.88 11.1
8 -1 -14 91.62 9.6
8 1 14 87.51 10.58
-8 -1 -14 71.35 10.64
-8 1 -14 104.92 11.26
-8 -1 14 106.58 9.77
-8 -1 -14 81.35 10.25
-8 1 14 78.42 10.42
-8 1 -14 86.84 9.16
-8 1 14 82.43 8.97
8 1 -14 98.63 10.05
-8 -1 14 71.72 8.95
8 1 -14 103.9 10.82
8 1 14 82.39 10.79
-8 1 -15 239.43 21.06
8 1 15 233.67 21.8
8 1 15 227.53 21.97
8 -1 15 238.89 21.89
8 1 -15 272.46 22.57
-8 -1 -15 230.49 22.65
8 -1 -15 253.8 21.43
-8 1 -15 233.27 22.45
-8 -1 -15 282.99 22.61
-8 -1 15 248.79 20.99
-8 1 15 252.89 22.55
8 1 -15 260.97 21.66
8 1 15 260.82 23.15
-8 1 15 267.57 21.04
-8 1 -16 309.33 25.68
8 1 16 309.83 26.59
8 -1 16 330.91 26.84
-8 1 16 315.74 25.42
-8 -1 -16 282.69 27.08
8 -1 -16 332.39 26.05
8 1 -16 304.8 26.07
-8 1 -16 302.82 27.11
-8 -1 -16 349.53 27.14
-8 1 16 281.64 26.8
8 1 16 317.37 27.59
8 1 -16 297.45 26.63
-8 1 17 12.27 3.6
8 -1 -17 6.85 3.24
8 1 17 10.59 4.24
8 1 -17 2.03 2.7
8 1 17 17.89 4.63
8 -1 17 10.61 4.66
-8 -1 -17 9.36 4.89
-8 1 -17 5.65 3.32
-8 1 -17 14.36 4.27
-8 1 17 8.83 4.42
-8 -1 -17 7.15 3.79
8 1 -17 14.37 4.86
-8 1 -18 66.47 7.63
8 1 18 68.66 8.58
8 1 -18 50.56 8.39
8 1 18 62.16 9.12
8 -1 18 53.97 8.16
8 -1 -18 58.95 7.64
-8 -1 -18 61.99 8.64
-8 1 18 59.42 7.08
-8 1 -18 54.93 8.68
-8 1 18 58.48 8.72
-8 1 18 46.86 6.84
8 1 -18 60.12 7.75
8 1 19 259.87 24.35
8 1 -19 290.75 24.9
-8 1 19 255.12 23.09
8 -1 19 254.81 24.27
8 -1 -19 275.87 23.76
8 1 -19 273.58 24.1
-8 1 -19 315.55 25.91
-8 -1 -19 313.84 25.18
-8 1 19 288.71 25.44
-8 1 19 296.6 23.37
8 1 19 290.7 25.83
8 1 20 78.34 9.46
8 1 20 70.79 10.15
-8 1 -20 60.54 9.26
8 1 -20 58.66 9.03
8 -1 -20 64.14 8.21
-8 -1 -20 74.97 9.36
8 1 -20 53.15 7.96
-8 1 20 59.42 9.32
-8 1 20 63.22 7.48
8 1 21 74.13 9.72
8 1 21 53.43 8.03
8 -1 -21 50.08 7.47
8 1 -21 57.76 8
-8 1 21 57.66 7.05
-8 1 -21 60 8.84
8 1 -21 64.11 8.92
-8 -1 -21 67.78 8.95
-8 1 21 49.1 8.52
8 1 22 23.39 6.38
8 -1 -22 36.76 6.05
8 1 22 33.98 6.33
8 1 -22 40.97 6.64
-8 1 -22 27.1 6.52
-8 1 22 35.73 7.21
-8 1 22 39.78 5.58
8 1 -22 22.95 5.9
-8 -1 -22 40.2 6.98
8 1 -23 14.49 5.37
8 1 23 20.39 5.33
-8 1 -23 24.58 6.26
8 -1 -23 33.52 5.91
8 1 -23 27.66 5.58
-8 -1 -23 30.29 6.17
-8 1 23 27.75 4.9
-8 1 23 32.25 6.74
8 1 24 35.19 7.15
-8 -1 -24 55.55 8.34
8 1 -24 61.88 8.74
8 -1 -24 55.31 7.58
8 1 -24 50.51 7.78
-8 1 -24 51.41 8.48
-8 1 24 61.99 9.59
-8 1 24 55.72 6.94
8 1 25 43.66 7.46
8 -1 -25 38.9 6.4
8 1 -25 37.8 6.78
-8 1 -25 38.54 7.53
-8 -1 -25 44.58 7.6
-8 1 25 39.87 7.87
8 1 -25 40.85 7.56
8 1 26 76.55 10.29
8 -1 -26 80.83 9.78
8 1 -26 71.98 10.13
-8 1 -26 100.5 11.75
-8 1 26 73.29 11.09
-8 -1 -26 75.51 10.27
8 1 -26 75.54 10.61
8 1 27 115.34 13.35
8 -1 -27 109.34 12.26
-8 1 27 117.31 12.16
8 1 -27 105.66 13.2
8 1 -27 151.65 14.08
-8 1 -27 123.18 14.04
-8 -1 -27 107.23 13.15
-8 1 27 78.06 12.94
8 1 28 103.67 12.1
-8 1 -28 82.24 11.79
-8 -1 28 94.99 10.78
-8 1 28 105.41 11.22
-8 1 28 89.98 12.46
8 -1 -28 83.27 10.66
8 1 -28 94.34 11.49
8 1 -28 85.58 11.92
8 1 29 120.79 14.3
8 1 -29 112.59 14.3
-8 -1 29 130.12 13.42
-8 1 29 134.04 13.88
8 -1 -29 142.3 14.08
-8 1 29 104.6 14.87
8 1 -29 123.94 14.11
-8 1 -29 140.98 15.39
8 1 30 53.22 9
-8 1 30 62.36 8.63
-8 -1 30 61.92 8.45
8 1 -30 71.54 9.45
-8 1 -30 60.57 9.84
-8 1 30 54.4 9.92
8 1 -30 64.67 9.73
8 1 31 30.16 6.53
-8 1 31 16.34 6.41
-8 1 31 18.3 5.33
-8 -1 31 24 5.59
8 1 -31 18.98 5.55
-8 1 -31 21.79 6.47
8 1 32 22.19 6.48
-8 1 -32 14.91 6.06
-8 1 32 12.18 4.93
8 1 -32 13.43 4.83
-8 1 32 15.33 6.33
-8 -1 32 21.13 5.33
-8 -1 33 9.12 4.29
8 1 33 17.17 5.66
-8 1 -33 20.25 6.35
-8 1 33 20.46 5.2
8 1 -33 16.87 5.64
-8 1 33 5.19 5.5
8 1 34 39.21 7.65
-8 1 34 35.54 8.44
-8 -1 34 25.54 5.91
-8 1 34 17.33 5.62
8 1 -34 28.34 6.88
-8 1 -34 36.09 7.95
-8 1 35 72.12 11.61
8 1 35 75.17 10.54
-8 1 -35 64.26 10.64
-8 1 35 70.62 9.99
-8 -1 35 67.79 9.33
8 1 -35 73.15 10.54
8 1 36 32.51 7.17
-8 -1 -36 31.5 7.5
-8 1 36 36.56 8.76
-8 -1 36 32.22 6.58
8 1 37 34.07 7.13
-8 -1 37 32.76 6.43
-8 1 37 23.33 8.03
9 1 0 4.37 2.68
-9 -1 0 8.64 2.55
9 -1 0 2.89 2.51
9 1 0 1.26 3.04
9 -1 0 3.56 3.09
-9 1 0 1.91 2.26
-9 -1 1 7.98 2.5
9 1 1 6.34 3.23
9 1 -1 11.73 3.47
9 -1 1 5.24 2.49
9 -1 -1 7.29 2.71
-9 1 -1 3.35 2.53
9 1 1 3.2 3.54
9 1 -1 7.46 3.17
9 -1 1 8.91 3.7
-9 1 1 10.98 2.98
-9 -1 -1 10.43 2.6
-9 1 -1 5.28 1.78
9 1 2 9.64 3.69
9 1 -2 14.06 4
9 -1 2 12.29 3.4
9 -1 -2 14.8 3.61
9 1 2 23.38 4.78
9 -1 2 19.74 4.4
9 1 -2 34.01 5.07
-9 -1 -2 22.69 3.57
-9 1 2 12.36 3.77
-9 -1 -2 31.43 5.22
-9 1 -2 20.21 3.88
-9 1 2 10.93 3.15
-9 -1 2 14.27 3.29
-9 1 -2 18.88 2.84
9 -1 3 185.67 16.83
9 1 3 174.28 16.49
9 1 -3 178.66 16.35
9 -1 3 200.43 15.89
9 -1 -3 157.02 15.53
9 1 3 190.25 16.85
9 -1 3 184.88 16.42
9 1 -3 184.28 16.53
-9 -1 -3 204.08 17.36
-9 -1 -3 170.76 15.17
-9 -1 3 188.77 15.67
-9 1 -3 176.81 15.74
-9 1 3 186.31 15.77
-9 1 3 186.73 16.51
9 -1 4 71.02 8.3
9 1 -4 62.08 7.68
9 -1 4 65.64 7.09
9 1 4 54.97 7.57
9 1 4 65.1 8.19
9 -1 4 72.71 7.93
-9 -1 4 56.09 6.84
-9 -1 -4 62.73 8.11
-9 1 4 51.77 7.39
-9 1 -4 60.61 7.14
-9 1 4 68.57 7.2
-9 -1 -4 71.8 6.79
9 1 5 77.48 8.88
9 1 -5 77.72 8.79
9 -1 5 84.11 8.19
-9 -1 5 68.88 7.82
9 1 5 78.76 9.23
9 -1 5 93.36 9.14
-9 -1 -5 91.34 9.79
-9 1 5 68.12 8.69
-9 1 -5 73.94 8.11
-9 1 5 66.11 7.84
9 -1 5 82 9.27
9 1 6 73.31 8.7
-9 -1 6 65.3 7.62
9 -1 6 67.04 7.57
9 1 -6 67.76 8.26
9 1 6 72.76 8.8
9 -1 6 76.86 8.54
-9 -1 -6 79.46 9.29
9 1 -6 82.86 9.38
9 -1 6 67.77 8.78
-9 1 6 82.33 7.99
-9 1 6 90.04 9.17
-9 1 -6 62.03 7.63
9 1 7 371.21 30.17
9 -1 7 378.95 29.01
9 1 -7 349.85 29.53
9 1 7 398.46 30.59
9 -1 7 387.81 30.08
-9 -1 -7 373.9 30.68
-9 1 7 383.5 30.25
9 1 -7 342.5 30.34
-9 -1 7 343.03 28.91
-9 1 -7 330.63 28.88
-9 1 7 365.41 28.99
9 -1 7 359.49 30.42
9 1 8 240.54 20.33
9 -1 8 231.11 19.04
9 1 -8 214.31 19.55
9 1 8 240.27 20.52
9 -1 8 239.11 20.11
-9 -1 -8 238.6 20.93
9 1 -8 214.17 20.43
-9 -1 8 226.22 19.21
-9 1 -8 233.62 19.26
-9 1 8 228.02 19.18
-9 1 8 208.27 19.83
9 -1 8 209.19 20.21
9 1 9 70.78 8.62
9 1 -9 76.69 8.45
-9 1 9 78.11 9.11
9 -1 9 58.44 8.54
-9 -1 9 75.08 8
9 1 9 87.54 9.57
9 -1 9 71.39 8.6
9 1 -9 77.66 8.67
-9 -1 -9 50.29 8.76
-9 1 -9 73.32 9.44
9 1 -9 75.75 9.34
-9 1 -9 67.54 7.7
-9 1 9 63.69 7.7
9 1 10 78.16 9.13
9 1 -10 72.24 8.58
9 -1 10 50.25 8.5
9 1 10 76.96 9.41
9 -1 10 73.31 9.16
9 1 10 67.41 9.39
-9 -1 -10 63.54 9.52
-9 1 -10 88.1 10.12
-9 1 10 71.16 9.14
-9 1 -10 74.15 8.08
-9 -1 10 80.4 8.39
-9 1 10 80.83 8.16
9 1 -10 78.52 9.44
9 1 -10 83.18 8.9
9 1 11 59.84 7.81
9 -1 11 51.32 7.72
9 1 -11 39.44 6.45
9 1 11 55.9 7.93
9 -1 11 55.09 7.73
9 1 11 52.32 7.95
9 1 -11 49.66 7.55
9 1 -11 50.88 7.02
-9 1 11 57.84 7.91
-9 1 -11 65.88 8.41
-9 1 -11 51.89 6.58
-9 -1 11 56.91 6.88
-9 1 11 55.85 6.57
-9 -1 -11 51.96 8.19
9 -1 12 25.84 5.41
9 1 12 15.08 4.45
9 1 -12 19.24 4.39
9 1 12 26.62 5.99
9 1 12 18.47 4.97
9 -1 12 26.98 5.38
-9 -1 -12 30.15 5.99
9 1 -12 19.03 4.37
-9 1 12 21.12 5.09
-9 1 -12 20.76 4.1
-9 1 -12 30.08 6.08
-9 1 12 17.31 3.77
-9 -1 12 22.03 4.35
9 1 -12 13.76 4.57
9 -1 13 7.95 4
9 1 13 -1.54 3.14
9 1 -13 -2.51 2.74
9 1 13 -0.97 3.33
9 -1 13 -1.52 3.45
9 -1 -13 1.99 2.63
-9 -1 -13 0.91 3.61
9 1 -13 -0.69 2.52
-9 1 -13 -0.53 2.28
-9 1 -13 6.33 3.77
-9 1 13 -0.54 2.3
-9 -1 13 -0.58 2.82
9 1 13 1.64 3.57
-9 1 13 -2.44 3.31
9 1 -13 -4.91 3.92
9 -1 14 9.03 3.81
9 1 -14 14.07 4.34
9 1 14 11.72 3.61
9 1 14 11.84 4.58
9 1 14 16.78 4.99
9 -1 14 13.11 4.12
9 1 -14 14.64 4
-9 -1 -14 16.59 4.95
-9 1 14 13.26 3.71
-9 1 -14 8.4 3.63
-9 1 14 19.78 4.96
-9 1 -14 11.02 4.43
-9 -1 -14 19.82 4.63
-9 1 -14 13 3.55
9 -1 -14 13.28 3.95
-9 -1 14 18.95 4.26
9 -1 15 4.62 3.46
9 1 15 20.7 4.82
9 1 -15 11.74 4.61
9 1 15 11.06 4.69
9 1 15 20.45 5.25
9 -1 15 13.38 4.45
-9 -1 -15 14.14 5.01
-9 1 -15 20.84 3.99
9 -1 -15 14.8 4.12
9 1 -15 22.01 4.77
-9 1 15 18 5.06
-9 1 -15 19.75 5.46
-9 -1 -15 21.75 5.22
-9 1 15 13.4 3.57
-9 -1 15 13.35 3.93
9 1 16 45.18 6.89
9 1 16 43.27 7.73
9 1 -16 32.39 6.75
9 1 16 33.17 6.97
9 -1 16 45.08 7.17
-9 -1 -16 37.62 7.17
-9 1 -16 41.38 5.79
-9 1 16 47.88 7.45
-9 1 -16 50.43 7.72
-9 -1 -16 61.05 7.93
-9 1 16 45.8 6.05
9 1 -16 49.18 6.8
-9 -1 16 31.58 5.78
9 -1 -16 41.43 6.39
9 -1 -17 26.78 5.18
9 1 17 30.57 6.57
9 1 17 31.34 5.81
9 1 17 31.87 6.44
9 -1 17 35.17 6.04
9 1 -17 13.83 5.23
-9 -1 -17 39.52 7.13
-9 1 17 19.13 5.23
-9 -1 -17 25 5.49
-9 1 -17 27.33 4.65
-9 1 17 28.37 4.85
-9 1 17 24.05 4.65
9 1 -17 19.89 4.8
-9 1 -17 36.76 6.55
-9 1 18 45.49 6.48
-9 -1 -18 53.29 8.49
9 1 18 66.82 9.39
9 1 18 54.78 7.9
9 1 18 51.34 8
9 -1 18 51.92 8.13
-9 1 18 46.67 6.66
9 1 -18 35.96 7.44
9 -1 -18 57.88 7.57
9 1 -18 61.5 7.66
-9 1 18 59.22 8.53
-9 1 -18 59.93 8.83
-9 -1 -18 58.1 8.2
9 1 19 161.64 16.48
-9 1 -19 157.9 17.01
9 1 19 160.34 16.82
9 -1 19 167.75 16.69
-9 -1 -19 142.9 16.85
9 1 19 183.03 18.03
-9 -1 -19 202.81 17.51
-9 1 19 167.88 15.45
-9 1 19 172.34 15.47
9 -1 -19 199.81 16.46
-9 1 19 164.82 17.07
9 1 -19 168.04 16.21
9 1 -19 145.44 16.43
9 1 20 53.4 9.03
9 -1 -20 54.02 7.31
9 1 20 51.19 7.65
9 -1 20 36.69 7.16
-9 1 20 51.44 6.68
-9 -1 -20 41.88 7.95
9 1 -20 52.57 7.51
-9 1 20 40.17 7.69
-9 -1 -20 51.23 8.02
9 1 -20 41.7 7.67
-9 1 -20 54.02 8.44
9 1 21 13.59 5.03
9 1 21 13.32 4.64
9 -1 21 12.41 4.7
-9 -1 -21 7.46 4.45
9 -1 -21 19.12 4.35
9 1 -21 13.66 4.34
-9 1 21 10.95 4.86
-9 1 -21 19.69 5.69
-9 -1 -21 19.52 5.12
-9 1 21 13.96 3.75
9 1 -21 6.45 4.74
9 1 22 -1.15 4.22
9 1 -22 2.48 2.84
9 1 22 -0.9 3.49
9 -1 22 -0.9 3.67
9 -1 -22 -2.25 2.91
-9 1 22 -1.03 4.01
-9 1 -22 -1.07 3.9
-9 -1 -22 -2.86 3.69
-9 1 22 2.45 2.78
9 1 -22 -0.94 4.41
-9 1 23 11.57 5.05
9 1 -23 1.91 4.43
9 1 23 2.77 3.6
9 -1 23 2.75 4.02
9 -1 -23 6.86 3.48
9 1 -23 8.42 3.91
-9 1 -23 5.42 4.11
-9 -1 -23 5.81 4.15
-9 1 23 5.62 3.26
9 1 24 6.56 4.29
9 1 -24 0.97 5.56
9 -1 24 7.47 4.43
-9 -1 -24 13.73 4.81
9 -1 -24 13.25 4.03
9 1 -24 4.32 3.74
-9 1 24 10.69 5.06
-9 1 24 7.03 3.37
-9 1 -24 15.44 5.31
9 1 25 0.95 3.69
-9 -1 -25 -4.98 4.06
9 -1 -25 0.8 3.26
9 1 -25 -1.78 3.35
-9 1 -25 -2.27 4.39
-9 1 25 7.6 4.73
9 1 26 101.34 11.94
9 1 -26 85.76 11.93
9 1 -26 95.96 11.65
-9 1 -26 99.18 12.86
-9 -1 -26 109.48 12.57
-9 1 26 91.59 12.41
9 -1 -26 98.31 11.38
9 1 27 20.75 5.39
-9 1 27 18.38 6.06
9 -1 -27 15.12 4.56
9 1 -27 11.18 4.53
-9 1 -27 15.25 5.54
9 1 -27 15.39 6.02
9 1 28 54.16 8.16
9 -1 -28 36.19 6.49
9 1 -28 32.6 6.9
-9 1 -28 37.14 7.76
-9 1 28 31.48 7.36
9 1 -28 30.26 7.07
-9 1 29 1.18 4.47
9 1 29 1.02 3.94
-9 1 29 -2.45 3.4
9 1 -29 -1.98 3.73
-9 1 -29 7.32 4.85
9 1 -29 -3.18 4.62
9 1 30 7.22 4.43
-9 1 30 2.4 4.56
-9 -1 30 5.47 4.2
-9 1 30 9.96 4.07
9 1 -30 9.06 4.41
-9 1 -30 4.96 4.16
9 1 -30 9.76 4.94
9 1 -31 8.82 5.28
9 1 31 26.41 6.38
-9 -1 31 14.31 4.46
9 1 -31 10.37 4.53
-9 1 31 18.74 6.46
-9 1 31 6.75 4.09
-9 1 -31 22.7 6.42
-9 -1 32 11.29 4.55
9 1 32 19.26 5.81
9 1 -32 16.8 5.74
-9 1 32 18.03 5.4
9 1 -32 18.16 5.72
-9 1 -32 12.82 6.13
-9 1 32 8.87 5.84
9 1 33 8.68 5.04
9 1 -33 5.69 5.38
-9 -1 33 4.1 3.76
-9 1 33 11.22 4.64
9 1 -33 8.7 4.47
-9 1 -33 5.23 4.68
-9 1 33 12.84 5.73
9 1 34 26.36 6.57
9 1 -34 19.65 6.42
-9 -1 34 19.72 5.47
-9 1 34 15.6 6.5
9 1 35 16.69 6.19
-9 -1 35 21.44 5.58
-9 1 35 22.39 7.46
10 1 0 31.54 5.49
10 -1 0 34 5.3
10 1 0 25.09 5.93
10 -1 0 47.74 6.69
-10 -1 0 33.33 4.7
-10 1 0 21.11 4.32
10 1 -1 57.04 7.75
10 -1 1 49.26 6.8
10 -1 -1 55.67 7
10 1 1 49.22 7.42
10 1 1 78.6 8.68
10 1 -1 86.53 8.9
10 -1 1 81.66 8.55
-10 -1 -1 53.8 6.47
-10 -1 1 60.74 6.75
-10 1 -1 49.16 6.58
-10 1 1 43.66 6.4
10 1 2 158.53 15.41
10 1 -2 173.34 15.52
10 -1 2 171.86 14.84
10 -1 -2 158.18 14.76
10 1 2 200.72 16.45
10 -1 2 193.26 15.97
10 1 -2 217.44 16.49
-10 -1 -2 142.69 14.04
-10 -1 2 141.33 14.18
-10 1 -2 151.37 14.48
-10 1 2 152.52 14.44
10 -1 3 125.18 13.12
10 1 3 113.42 12.54
10 1 -3 113.39 12.44
10 -1 3 128.59 12.02
10 1 3 160.89 13.74
10 -1 3 148.34 13.19
-10 1 3 132.15 12.02
-10 -1 3 115.76 11.69
-10 1 -3 113.65 11.69
10 1 4 19.35 4.97
10 1 -4 32.96 5.54
10 -1 4 26.31 4.64
10 -1 4 27.4 5.5
10 1 4 42.34 6.41
10 -1 4 29.36 5.87
-10 1 4 20.22 4.89
-10 1 -4 13.57 3.98
-10 1 4 24.99 4.41
-10 -1 4 21.34 4.3
-10 -1 -4 38.32 6.67
10 1 5 78.63 9.72
10 1 -5 103.12 10.23
10 -1 5 76.18 8.72
10 1 5 109.41 11
10 -1 5 65.53 9.47
10 -1 5 112.13 10.4
-10 -1 5 69.33 8.59
-10 -1 -5 102.82 11.1
-10 1 5 83.56 9.77
-10 1 -5 75.1 8.64
-10 1 5 80.96 8.72
10 1 6 211.33 19.98
10 -1 6 233.83 19.18
10 1 -6 223.04 19.79
10 1 6 253.2 20.78
10 -1 6 279.26 20.8
10 -1 6 224.7 20.53
-10 -1 -6 267.04 21.36
-10 1 6 219.29 20
-10 -1 6 186.98 18.78
-10 1 -6 232.31 19.17
-10 1 6 193.55 18.81
10 1 7 148.76 14.68
10 1 -7 124.91 13.89
10 1 7 168.46 15.41
10 -1 7 202.79 15.53
-10 -1 7 136.69 13.52
-10 -1 -7 202.49 16.47
-10 1 7 133.9 14.33
-10 1 -7 144.82 13.53
-10 1 7 128.61 13.3
10 -1 7 140.14 14.92
-10 1 8 17.83 4.09
10 1 8 21.2 5.05
10 -1 8 14.43 4.56
10 1 -8 26.16 5.03
10 1 8 17.55 5.71
10 -1 8 23.56 5.49
10 1 -8 12.07 5.17
-10 1 8 16.54 4.79
-10 1 -8 12.83 3.67
-10 -1 -8 31.72 6.8
-10 -1 8 9.52 3.52
10 1 -9 75.43 8.93
10 1 9 67.77 9.11
10 1 9 96.48 10.58
10 -1 9 93.54 9.88
10 1 -9 72.79 9.82
-10 -1 9 63.34 8.2
-10 -1 -9 87.53 10.52
10 1 -9 77.48 9.66
-10 1 -9 71.11 8.23
-10 1 9 70.07 8.2
-10 1 9 72.87 9.32
10 -1 9 82.01 10.08
10 -1 10 20.62 5.33
10 1 10 24.26 5.36
10 1 -10 24.34 5.18
10 1 10 36.93 6.52
10 -1 10 34.11 6.27
10 1 10 21.29 5.68
10 1 -10 25.36 6.36
-10 -1 -10 15.88 5.92
10 1 -10 18.43 4.99
-10 1 10 26.55 5.61
-10 1 10 35.01 5.05
-10 1 -10 23.92 4.56
-10 -1 10 15.32 4.29
10 -1 11 14.72 5.4
10 1 11 22.12 5.38
10 1 -11 20.38 4.73
-10 1 -11 29.42 6.5
10 1 11 39.81 6.64
10 -1 11 29.5 6.17
10 1 11 25.61 5.94
-10 -1 -11 39.69 7.12
10 1 -11 32.58 5.91
10 1 -11 26.38 6.16
-10 1 11 32.38 5.98
-10 1 -11 32.04 5.09
-10 -1 11 18.01 4.44
-10 1 11 30.69 4.99
10 -1 12 23.5 5.76
10 1 12 20.88 5.46
10 1 -12 27.45 5.4
10 1 12 26.02 6.64
-10 1 -12 21.82 4.6
10 1 12 35.01 6.84
10 1 -12 39.75 6.21
-10 1 12 17.92 5.19
10 1 -12 37.14 6.77
-10 1 -12 32.64 6.46
10 -1 12 38.26 6.48
-10 1 12 27.42 5.06
-10 -1 12 22.26 4.82
-10 -1 -12 27.81 6.83
10 -1 13 29.78 6.63
10 1 13 33.6 6.26
10 1 -13 52.67 7.2
10 1 13 35.98 7.47
10 1 13 54.97 8.13
10 -1 -13 44.01 6.96
10 1 -13 49.23 7.24
-10 1 13 52.18 7.63
-10 1 -13 32.14 7.14
10 1 -13 43.71 7.9
-10 1 -13 33.65 5.57
10 -1 13 52.4 7.7
-10 -1 -13 48.31 8.57
-10 -1 13 37.78 6.07
-10 1 13 40.03 5.96
10 1 14 148.25 14.97
-10 1 14 139.99 13.81
10 1 14 151.67 15.59
10 -1 14 144.19 15.12
-10 -1 -14 124.83 15.36
10 -1 -14 158.81 14.77
10 1 -14 160.28 14.95
10 -1 14 120.44 15
-10 1 -14 158.91 16.12
-10 1 14 156.83 15.28
-10 1 -14 147.72 13.79
10 1 14 155.02 16.41
-10 -1 14 141.34 14.05
10 1 -14 153.23 15.62
10 -1 15 4 3.71
10 1 15 10.13 4.55
10 1 15 12.06 5.1
10 1 15 21.95 5.61
10 -1 15 12.85 5.31
-10 -1 -15 3.93 4.75
10 -1 -15 15.55 4.65
10 1 -15 8.53 4.01
-10 1 -15 7.05 4.34
-10 1 -15 6.27 3.19
-10 1 15 11.75 3.74
10 1 -15 3.64 3.93
-10 1 15 10.63 4.36
-10 -1 15 5.26 3.21
10 1 16 42.7 7.05
10 1 16 32.5 7.15
10 1 16 47.64 7.53
10 -1 16 38.2 6.98
-10 -1 -16 43.27 7.64
10 -1 -16 44.93 6.57
10 1 -16 33.11 6.03
-10 1 16 27.83 6.13
-10 1 16 28.47 5.43
-10 1 -16 33.93 6.88
-10 -1 16 26.21 5.37
10 1 -16 36.8 7.11
10 1 -17 27.93 6.07
10 1 17 14.74 5.69
10 1 17 16.58 4.91
10 1 17 20.99 5.79
10 -1 17 19.35 5.53
-10 -1 -17 14.31 5.24
10 -1 -17 20.38 4.89
-10 1 17 17.69 5.15
-10 1 -17 19.81 5.57
-10 1 17 18.53 4.43
-10 -1 -17 24.42 5.82
-10 1 17 19.09 4.34
10 1 -17 20.84 5.02
-10 -1 17 14.37 4.08
10 1 -18 26.4 6.16
10 1 18 27.81 6.73
-10 1 18 18.89 4.54
10 1 18 14.13 5.06
10 1 18 23.23 6.07
-10 1 18 30.11 5.02
10 -1 18 29.6 6.25
-10 -1 -18 21.94 6.18
10 -1 -18 25.9 5.34
10 1 -18 20.36 5.24
-10 1 18 18.88 5.57
-10 1 -18 29.86 6.65
-10 -1 -18 21.86 5.73
10 1 19 23.67 6.54
10 1 19 18.88 5.26
10 1 -19 30.64 6.84
-10 1 19 25.22 4.98
10 1 19 25.75 6.48
-10 -1 -19 34.17 6.94
10 -1 19 32.74 6.62
-10 -1 -19 33.69 6.82
10 -1 -19 26.26 5.43
10 1 -19 29.08 5.88
-10 1 19 31.57 6.45
-10 1 -19 29.22 6.62
-10 1 19 27.07 5.3
10 1 20 8.41 4.92
10 1 20 16.38 4.87
10 1 -20 2.91 4.87
10 1 20 27.15 6.56
-10 -1 -20 19.52 6.36
10 -1 20 23.23 6.56
10 1 -20 17.73 5.06
-10 1 20 16.88 5.57
-10 1 -20 27.35 6.63
-10 -1 -20 17.59 6.01
-10 1 20 19.02 4.45
10 -1 -20 14.88 4.82
10 1 21 155.09 15.99
10 1 21 161.97 16.92
10 -1 21 164.01 16.78
10 1 -21 185.17 16.37
-10 -1 -21 126.6 16.62
10 -1 -21 142.19 15.18
-10 1 -21 175.51 17.71
-10 -1 -21 166.42 16.96
-10 1 21 130.89 15.93
-10 1 21 139.65 14.61
10 1 -21 160.2 16.91
10 1 21 178.18 17.97
10 1 22 242.67 22.67
10 1 22 227.69 22.92
10 -1 22 221.66 22.62
-10 -1 -22 194.23 22.77
10 1 -22 230.49 22.16
-10 1 -22 248.05 23.86
10 -1 -22 309.71 22.9
-10 -1 -22 276.84 23.86
-10 1 22 259.27 23.36
-10 1 22 234.67 21.26
10 1 22 264.73 24.81
10 1 -22 231.16 22.82
10 1 23 30.1 7.13
10 1 23 21.9 5.82
10 1 23 30.49 6.98
10 -1 23 30.33 6.86
-10 -1 -23 13.84 6.18
10 1 -23 11.12 6.35
10 1 -23 15.33 5.24
-10 1 23 27.72 6.81
-10 1 -23 18.3 5.87
-10 -1 -23 35.85 6.99
-10 1 23 17.07 4.64
10 -1 -23 19.75 5.14
10 1 24 3.89 4.23
10 1 24 1.07 4.14
10 -1 24 -2 4.45
10 -1 -24 1.67 3.15
10 1 -24 -1.83 3.74
10 1 -24 -3.08 4.74
-10 1 24 1.08 4.08
-10 1 -24 2.32 3.86
-10 -1 -24 -1.05 3.95
-10 -1 -24 -3.52 4.66
-10 1 24 -0.7 3.04
10 1 25 11.81 4.58
10 -1 25 11.18 5.14
-10 -1 -25 1.19 4.53
10 -1 -25 9.36 4.18
10 1 -25 6.58 4.21
-10 1 -25 4.73 4.61
-10 -1 -25 10.62 5.11
10 1 -25 2.08 4.84
-10 1 25 9.96 3.93
-10 1 25 4.38 4.49
10 1 26 43.85 8.26
10 1 -26 47.19 7.98
10 -1 26 60.71 9.1
10 1 -26 41.23 8.04
-10 -1 -26 43.67 8.96
10 -1 -26 43.47 7.39
-10 1 26 48.93 9.01
-10 1 -26 51.63 9.01
10 1 27 28.49 6.82
10 -1 27 32.38 7.16
10 -1 -27 21.34 5.6
10 1 -27 36.23 6.86
-10 1 27 23.05 6.85
-10 1 -27 31.69 7.3
10 1 -27 22.53 6.28
10 1 28 9.27 4.32
10 -1 28 10.59 5.27
10 1 -28 7.03 4.12
-10 1 28 7.01 5.11
-10 1 -28 3.71 4.69
10 1 -28 3.26 4.24
10 1 29 7.3 4.47
10 -1 29 1.07 4.19
10 1 -29 4.12 4.6
-10 1 29 10.65 5.58
-10 1 -29 8.88 5.31
10 1 -29 6.62 4.72
10 1 -30 2.25 4.89
-10 1 -30 1.29 4.58
10 1 30 3.16 4.09
10 -1 30 1.09 4.55
-10 1 30 0.87 3.55
-10 1 30 1.2 3.99
10 1 -30 1.05 4.37
10 1 31 17.07 5.57
-10 1 31 19.39 6.22
-10 1 31 3.54 4.35
-10 -1 31 5.04 4.07
10 1 -31 9.68 4.63
-10 1 -31 10.45 5.72
10 1 -31 5.69 5.3
10 1 32 25.04 6.67
-10 1 32 33.87 7.91
-10 -1 32 27.25 6.35
10 1 33 33.02 7.26
11 1 0 1.49 3.12
11 -1 0 4.8 2.88
11 1 0 0.77 4.04
-11 1 0 1.11 2.47
-11 -1 0 6.68 3.07
11 1 1 29.4 5.63
11 1 -1 40.03 6.18
11 -1 1 32.2 5.19
11 -1 -1 30.33 5.21
11 1 1 31.64 6.13
11 1 -1 33.59 6.34
11 -1 1 33.02 6.23
-11 1 -1 30.31 5.05
-11 1 1 28.13 4.79
-11 -1 -1 43.76 5.35
-11 -1 1 30.29 4.96
11 1 2 45.72 6.83
11 1 -2 38.37 6.46
11 -1 2 36.77 5.89
11 -1 -2 51.51 6.42
11 1 2 39.23 6.96
11 -1 2 36.79 6.71
11 -1 2 40.96 6.83
-11 1 2 44.69 5.95
-11 -1 2 42.33 5.81
-11 1 -2 38.71 5.81
11 1 3 30.56 5.59
11 1 -3 29.55 5.51
11 -1 3 28.24 4.9
11 -1 3 26.23 5.78
11 1 3 33.35 6.32
11 -1 3 25.12 5.7
-11 1 3 23.57 4.58
-11 1 -3 27.02 4.69
-11 -1 3 27.78 4.72
-11 1 -4 12.2 3.57
11 1 4 6.22 3.36
11 1 -4 4.41 3.56
11 -1 4 8.79 3.3
11 -1 4 10.33 4.23
11 1 4 6.38 3.86
11 -1 4 4.47 3.9
-11 1 4 7.37 3.23
-11 -1 4 8.42 3.16
11 1 5 4.72 3.58
11 1 -5 3.66 3.33
11 -1 5 2.63 3.32
11 1 5 11.34 4.68
11 -1 5 6.82 3.76
-11 1 -5 -0.56 2.86
-11 -1 5 6.27 3.1
-11 -1 -5 5.99 4.77
-11 1 5 6.86 3.23
11 1 6 192.13 17.33
11 1 -6 178.5 16.84
11 1 6 195.28 17.62
11 -1 6 173.57 16.91
-11 -1 -6 172.82 17.47
-11 1 6 195 17.35
-11 -1 6 180.51 16.19
-11 1 -6 181.52 16.07
-11 1 6 186.82 16.19
11 -1 6 144.95 16.87
11 1 7 8.83 3.94
11 -1 7 11.79 4.43
11 1 -7 16.14 4.6
11 1 7 23.7 5.55
11 -1 7 17.17 5.03
-11 -1 -7 14.9 5.52
-11 1 7 8.61 4.15
-11 1 -7 11.76 3.66
-11 1 7 11.06 3.57
-11 -1 7 7.15 3.2
11 1 -8 71.34 8.79
-11 -1 -8 57.14 8.94
11 1 8 69.26 8.94
11 -1 8 59.31 9.07
11 1 8 76.7 9.24
11 -1 8 53.42 8.4
-11 1 8 92.01 9.61
-11 -1 8 71.47 8.17
-11 1 -8 66.59 7.79
-11 1 8 62.95 7.8
11 -1 9 21.87 5.55
11 1 9 26.24 5.55
11 1 -9 31.06 5.79
11 1 9 31.29 6.19
11 -1 9 26.5 6.11
-11 -1 -9 25.59 6.22
11 1 -9 33.76 5.99
-11 1 9 29.6 5.83
-11 1 -9 20.92 4.45
-11 1 9 25.11 4.99
-11 -1 9 24.97 4.96
11 1 10 94.87 11.61
11 1 10 88.42 10.52
11 1 -10 78.66 9.95
11 -1 10 75.04 10.45
11 1 10 87.96 10.65
11 -1 10 98.64 10.99
11 1 -10 60.76 9.92
-11 -1 -10 100.27 11.22
11 1 -10 83.45 10.25
-11 1 10 81.38 10.29
-11 -1 10 88.22 9.68
-11 1 -10 79.73 9.14
-11 1 10 106.33 9.98
11 -1 11 65.91 9.4
11 1 11 69.5 9.07
11 1 -11 61.83 8.41
11 1 11 55.66 9.3
11 1 11 62.8 9.31
11 -1 11 64.58 9.22
11 1 -11 77.93 9.15
-11 -1 -11 62.9 9.15
11 1 -11 91.67 10.26
-11 -1 11 66.74 8.34
-11 1 -11 62.5 7.74
-11 1 11 65.86 8.13
-11 1 11 75.98 9.38
11 -1 12 5.08 4.36
-11 1 -12 5.17 2.93
11 1 -12 6.55 3.82
11 1 12 8.54 3.83
11 1 -12 7.51 3.51
11 1 12 7.91 4.74
11 1 12 13.07 5.53
11 -1 12 10.15 4.41
11 1 -12 5.78 4.23
-11 -1 -12 5.73 4.1
-11 1 12 8.52 3.97
-11 1 12 5.69 3.02
-11 -1 12 5.32 3.33
11 -1 13 -1.03 3.9
-11 -1 -13 -6.84 4.43
11 1 13 -1.74 3.62
11 1 -13 -1.52 3.23
11 1 13 -1.15 4.33
-11 1 -13 -0.58 2.74
11 1 13 0.94 4.28
11 -1 -13 0.8 3.28
11 1 -13 -0.97 3.86
11 1 -13 1.66 3.38
-11 1 13 1.75 3.57
-11 1 -13 -2.11 3.63
-11 1 13 -0.65 2.82
-11 -1 13 4.79 3.33
11 -1 13 1.73 3.69
11 -1 14 1.06 3.51
11 1 14 0.88 3.11
11 1 14 3.5 3.88
11 1 14 5.84 4.33
11 -1 14 -1.78 3.87
11 -1 -14 9.71 4.07
11 1 -14 0.84 3.07
-11 1 14 3.54 3.43
-11 1 -14 3.2 3.91
-11 1 14 -1.99 3.18
-11 -1 14 -1.39 3.45
11 1 -14 0.98 3.48
11 -1 15 5.37 3.94
11 1 15 3.56 3.45
11 1 15 -1.19 3.95
11 1 15 4.92 3.91
11 -1 15 3.59 4.15
11 1 -15 5.06 3.68
-11 1 15 3.65 4.06
11 1 -15 2.95 3.6
-11 1 -15 -1.08 3.59
-11 1 15 2.68 2.86
11 -1 -15 -2.43 3.53
-11 -1 15 -2.85 3.74
11 -1 16 48.12 8.37
11 1 16 64.62 8.66
11 1 16 49.09 9.24
11 1 16 43.8 8.27
11 -1 16 57.15 8.54
-11 1 16 75.67 9.19
11 -1 -16 47.43 7.61
11 1 -16 53.93 7.92
-11 1 -16 64.48 9.62
11 1 -16 45.61 8.06
-11 1 16 57.15 7.56
-11 1 16 51.32 7.4
-11 -1 16 49.91 7.49
11 1 17 8.56 4.41
11 1 17 15.56 4.8
11 1 17 12.16 5.15
11 -1 17 10.25 4.89
11 1 -17 12.13 4.62
-11 1 17 15.24 5.28
11 -1 -17 10.69 4.08
-11 1 -17 12.17 5.17
-11 1 17 9.01 3.82
-11 1 17 10.45 3.79
11 1 -17 3.01 4.15
-11 -1 17 10.34 4.06
11 1 18 36.18 7.41
11 1 18 21.27 5.79
11 1 18 31.81 7.09
11 -1 18 34.64 6.85
11 -1 -18 36.44 6.17
11 1 -18 29.02 5.97
-11 1 18 38.52 7.17
-11 1 -18 19.16 5.79
-11 1 18 32.15 5.64
-11 1 18 30.95 5.71
11 1 -18 18.21 6.07
11 1 19 11.45 4.9
11 1 19 23.53 5.57
11 1 19 12.55 5.67
11 -1 19 17.53 5.5
11 -1 -19 10.06 4.13
11 1 -19 8.92 4.38
-11 1 19 16.57 5.57
-11 1 -19 21.69 5.91
-11 1 19 14.06 4.26
-11 1 19 14.26 4.32
11 1 -19 7.15 4.64
11 1 20 3.87 4.45
11 1 20 6.66 4.4
11 1 20 1.06 4.22
11 -1 20 0.99 3.62
-11 1 -20 4.66 4.4
11 -1 -20 14.39 4.46
11 1 -20 6.36 3.79
-11 1 20 1.01 4.13
-11 1 20 1.43 3.11
11 1 -20 -4.13 5.28
11 1 -21 -3.14 5.26
11 1 21 5.23 4.65
11 1 21 -2.88 4.1
-11 1 -21 -2.36 4.06
11 1 21 -2.16 3.97
11 -1 21 5.02 4.38
11 -1 -21 2.57 3.23
11 1 -21 9.21 4.33
-11 1 21 -2.05 4.55
-11 -1 -21 2.12 4
-11 1 21 2.17 3.34
11 -1 -22 35.55 6.27
11 1 22 26.45 6.8
11 1 -22 17.97 6.2
11 1 -22 38.42 6.71
11 1 22 33.34 6.49
11 1 22 25.2 6.68
11 -1 22 25.41 6.25
-11 1 22 25.89 6.62
-11 1 -22 41.86 7.83
-11 -1 -22 26.84 6.56
-11 1 22 38.55 6.02
11 1 23 2.68 4.3
11 1 -23 1.07 4.46
11 1 23 -0.99 3.74
11 1 23 -3.33 4.07
11 -1 23 10.29 4.76
11 -1 -23 -0.88 3.51
11 1 -23 1.91 3.51
-11 1 -23 3.67 4.35
-11 -1 -23 6.52 4.63
-11 1 23 3.7 3.36
-11 1 23 4.29 5.05
11 1 24 2.71 4.51
11 1 24 3.02 4
11 1 -24 2.17 4.2
11 1 24 1.14 4.4
11 -1 24 -8.4 4.57
-11 1 24 2.17 4.09
11 -1 -24 6.26 4.05
11 1 -24 0.98 3.58
-11 1 -24 2.48 4.26
-11 -1 -24 -1.1 3.79
-11 1 24 0.76 3.22
11 1 25 19.34 5.51
11 1 -25 5.49 4.36
11 1 25 11.51 5.4
11 -1 25 15.95 5.51
11 -1 -25 10.91 4.45
11 1 -25 14.87 5.23
-11 1 25 18.65 5.6
-11 1 -25 18.74 6.26
-11 1 25 10 4.32
11 1 26 39.07 7.05
11 1 26 29.18 7.12
11 -1 26 34.71 7.34
11 1 -26 30.02 6.89
11 -1 -26 30.37 6.34
11 1 -26 30.39 6.54
-11 1 26 25.52 6.73
-11 1 -26 35.45 7.66
-11 1 26 35.64 6.33
11 1 27 1.04 3.58
11 1 27 -1.18 4.57
11 -1 27 1.1 4.36
11 1 -27 -1.12 5
11 1 -27 -1.04 3.8
-11 1 27 -2.3 4.68
-11 1 -27 1.28 4.11
11 1 28 39.12 7.38
11 1 28 37.07 7.95
11 -1 28 25.55 6.76
11 1 -28 33.01 7.68
11 1 -28 34.68 7.1
-11 1 -28 42.89 8.09
-11 1 28 41.78 7.88
11 1 29 2.13 4.14
11 -1 29 -1.13 4.51
11 1 -29 -2.3 5.02
-11 1 29 9.39 4.89
11 1 30 54.95 8.88
11 -1 30 43.62 8.73
12 1 0 5.65 3.74
12 -1 0 5.28 3.43
12 1 0 7.53 4.88
-12 1 0 1.19 3.14
-12 1 -1 36.99 6.09
-12 1 1 48.33 6.54
12 1 1 36.61 7.04
12 1 -1 60.28 7.84
12 -1 1 43.18 6.44
12 -1 -1 41.32 6.53
12 1 1 57.08 8.13
12 1 -1 64.24 8.48
-12 -1 1 34.73 5.82
-12 1 2 24.1 4.81
12 1 2 29.31 5.85
12 1 -2 12.77 4.68
12 -1 -2 20.89 4.63
12 1 2 27.05 6.55
12 -1 2 24.95 5.96
-12 1 -2 23.97 4.6
-12 -1 2 26.44 4.96
12 1 3 11.51 4.26
12 1 -3 11.99 4.02
12 1 3 7.63 4.82
12 -1 3 5.65 3.99
-12 1 3 12.16 3.81
-12 -1 3 8.95 3.34
-12 1 -3 8.21 3.41
-12 1 4 25.05 4.83
12 1 4 23.29 5.5
12 1 -4 22.29 5.34
12 1 4 17.25 5.42
12 -1 4 35.68 6.48
-12 1 -4 23.39 4.56
-12 -1 4 22.08 4.65
12 1 5 28.37 6.05
12 1 -5 36.57 6.3
12 1 5 43.69 7.52
12 -1 5 49.05 7.82
-12 1 -5 36.38 5.5
-12 1 5 20.39 4.92
-12 -1 5 26.16 5.31
12 1 6 139.16 14.18
12 1 -6 125.8 13.78
12 1 6 184.63 15.87
12 -1 6 202.12 15.72
-12 -1 6 111.18 12.67
-12 1 -6 119.78 12.61
-12 1 6 108.18 12.55
12 -1 6 138.9 14.84
12 1 7 175.31 16.48
12 1 -7 145.49 15.64
12 1 7 222.18 17.72
12 -1 7 218.92 17.47
-12 -1 7 131.05 14.59
-12 1 -7 143.11 14.48
-12 1 7 146.52 14.85
12 -1 7 147.43 16.23
12 1 8 48.32 7.88
12 -1 8 53.13 8.56
12 1 -8 37.64 7.11
12 -1 8 81.31 9.35
12 1 8 67.45 9.11
-12 1 8 44.7 6.85
-12 1 8 40.23 7.37
-12 1 -8 50.89 6.77
-12 -1 8 36.23 6.5
12 -1 9 7.18 4.34
12 1 9 14.89 4.73
12 1 -9 14.45 4.57
12 1 9 13.98 5.09
12 -1 9 5.17 4.84
12 1 9 5.91 4.87
12 1 -9 2.63 3.88
-12 1 9 11.22 4.59
-12 1 -9 12.41 3.93
-12 1 9 11.74 3.95
-12 -1 9 9.49 3.83
12 -1 10 16.81 5.44
12 1 10 9.69 4.17
12 1 -10 12.08 4.73
12 1 10 15.19 5.61
12 -1 10 16.46 5.47
12 1 10 16.67 5.87
12 1 -10 14.99 5.22
-12 1 10 12.16 4.53
-12 1 -10 15.45 4.09
-12 1 10 12.05 3.87
-12 -1 10 5.51 3.52
12 -1 11 45.12 8.42
12 1 11 44.7 7.6
12 1 -11 43.74 7.45
12 1 11 57.96 9.46
12 1 11 61.24 8.91
12 -1 11 79.75 9.77
12 1 -11 41.5 7.89
-12 1 11 57.25 8.36
-12 1 11 46.51 6.9
-12 -1 11 48.91 7.29
12 -1 12 38.15 7.46
12 1 12 34.18 6.73
12 1 -12 35.9 6.81
12 1 -12 36.25 7.49
12 1 12 34.05 7.56
12 1 12 32.27 7.33
12 -1 12 54.4 8.04
12 1 -12 31.15 6.47
-12 1 12 32.84 6.6
-12 -1 12 36.68 6.26
-12 1 12 36.59 6.18
12 -1 -13 16.63 5.1
12 -1 13 11.09 4.99
12 1 13 6.4 4.22
12 1 -13 0.82 3.52
12 1 13 13.58 5.54
12 1 13 24.04 6.22
12 -1 13 21.02 5.91
12 1 -13 18.76 5.91
12 1 -13 9.89 4.45
-12 1 13 17.33 5.19
-12 1 13 12.01 4.05
-12 -1 13 5.17 3.62
12 -1 14 20.33 6.21
12 1 14 28.79 6.17
12 1 14 33.82 7.28
12 1 14 30.31 6.67
12 -1 14 32.62 6.72
12 1 -14 30.42 6.91
-12 1 14 19.32 5.48
12 -1 -14 20.23 5.5
12 1 -14 28.97 5.98
-12 1 14 20.66 4.83
-12 -1 14 23.24 5.18
12 -1 15 8.03 4.6
12 1 15 12.16 4.66
12 1 15 12.72 6.01
12 1 15 16.58 5.63
12 -1 15 11.44 5.05
12 1 -15 11.64 5.59
12 -1 -15 5.27 4.46
12 1 -15 0.91 3.67
-12 1 15 14.16 5.47
-12 1 15 10.92 4.18
-12 -1 15 1.53 3.1
12 -1 16 32.62 7.08
12 1 16 29.21 6.48
12 1 16 49.26 8.9
12 1 16 30.35 6.97
12 -1 16 41.36 7.38
12 1 -16 44.79 8.09
12 -1 -16 29.21 6.58
12 1 -16 35.93 6.71
-12 1 16 32.39 6.91
-12 1 16 43.15 6.61
-12 1 16 26.66 5.63
-12 -1 16 30.32 6.1
12 -1 17 8.29 5.08
12 1 17 3.92 4.38
12 1 17 11.48 4.69
12 1 17 10.79 5.19
12 -1 17 11.84 5.71
12 1 -17 6.44 4.61
12 -1 -17 3.56 3.99
12 1 -17 10.26 4.5
-12 1 17 9.79 4.72
-12 1 -17 7.08 5.06
-12 1 17 6.73 4.18
-12 1 17 9.73 3.86
-12 -1 17 2.38 3.49
12 1 18 69.33 10.82
12 1 18 58.82 9.08
12 1 18 92.64 11.25
12 -1 18 89.6 10.71
12 -1 -18 76.16 9.95
12 1 -18 59.5 9.06
-12 1 -18 88.26 11.23
-12 1 18 64.27 8.75
-12 1 18 55.04 8.23
-12 1 18 54.32 8.95
12 1 -18 65.99 10.23
-12 -1 18 41.81 7.9
12 1 19 76.01 11.52
12 1 19 64.59 9.57
12 1 19 73.87 10.72
12 -1 19 75.57 10.61
12 -1 -19 71.17 9.77
12 1 -19 67.92 9.64
-12 1 19 57.85 9.3
12 1 -19 71.8 10.51
-12 1 -19 77.13 11.37
-12 1 19 52.68 8.2
12 1 20 24.72 6.94
12 1 20 20.71 5.72
12 1 20 21.18 6.72
12 -1 20 27.86 6.51
12 -1 -20 20.01 5.6
12 1 -20 13.55 5.21
-12 1 20 14.38 5.5
-12 1 -20 15.88 6.2
12 1 -20 20.86 6.25
-12 1 20 18.44 4.89
12 1 21 29.12 7.56
12 1 21 15.08 5.44
12 1 21 31.72 7.22
12 -1 21 12.76 5.66
12 -1 -21 31.26 6.42
12 1 -21 26.55 6.32
-12 1 -21 37.06 7.53
-12 1 21 16.58 5.52
-12 1 21 17.89 5.04
12 1 -21 17.73 5.79
12 1 22 19.66 6.53
12 1 22 9.12 4.48
12 1 22 10.31 5.34
12 -1 22 15.05 5.62
12 -1 -22 13.93 4.51
-12 1 22 14.66 5.71
-12 1 -22 6.28 5.18
-12 1 22 7.11 3.98
12 1 -22 1.12 4.17
12 1 -22 16.98 5.31
12 1 23 8.52 5.68
12 1 23 13.28 4.85
12 1 23 9.27 5.39
12 -1 23 8.69 4.96
12 -1 -23 3.76 4.31
12 1 -23 14.15 5.35
-12 1 -23 10.17 5.46
-12 1 23 6.47 4.64
-12 1 23 5.57 3.98
12 1 -23 7.91 4.96
12 1 24 10.04 5.29
12 1 24 6.23 4.56
12 1 24 10.62 5.28
12 -1 24 7.69 4.82
12 -1 -24 10.45 4.43
12 1 -24 16.45 5.52
-12 1 24 7.62 4.78
-12 1 -24 10.28 5.51
-12 1 24 8.11 4.19
12 1 -24 -1.14 4.57
12 1 25 12.57 5.22
12 1 25 13.13 5.75
12 -1 25 7.77 5.61
12 -1 -25 2.89 3.97
-12 1 25 6.6 5.12
-12 1 25 10.72 4.74
12 1 -25 11.51 5.91
12 1 26 25.33 6.24
12 -1 26 23.67 6.48
-12 1 26 20.76 5.33
13 1 0 -1.74 3.18
-13 1 0 3.18 2.83
13 1 1 19.08 5.02
13 1 -1 16.37 4.99
13 -1 -1 18.15 4.69
13 1 1 19.05 5.35
-13 1 1 21.16 4.56
-13 1 -1 21.5 4.65
-13 1 -2 1.25 2.8
13 1 2 4.36 3.39
13 1 -2 6.86 4.18
13 1 2 8.2 4.29
-13 1 2 0.64 2.7
13 1 3 0.88 3.23
13 1 -3 0.86 3.16
13 1 3 3.65 3.64
13 -1 3 4.37 3.81
-13 1 -3 4.37 2.78
-13 1 3 2.61 2.79
-13 -1 3 4.59 3.09
13 1 4 2.64 3.41
13 1 -4 2.57 3.58
13 1 4 0.92 4.09
13 -1 4 4.39 3.98
-13 -1 4 1.33 3.07
-13 1 -4 0.62 2.69
-13 1 4 0.66 2.92
13 1 5 33.81 6.2
13 1 -5 25.74 5.64
13 1 5 14.98 5.13
13 -1 5 17.63 5.29
-13 1 -5 22.13 4.64
-13 1 5 19.39 4.75
-13 -1 5 31.01 5.21
13 1 6 0.9 2.99
13 1 -6 1.72 3.06
13 1 6 3.76 4.42
13 -1 6 -0.88 4.23
-13 1 -6 -2.47 2.51
-13 -1 6 3.46 3.13
-13 1 6 0.67 3.05
13 1 7 16.24 4.83
13 1 -7 24.13 5.71
13 1 7 23.81 5.93
13 -1 7 22.29 6.06
-13 1 -7 9.84 3.79
-13 1 7 21.98 4.65
-13 -1 7 11.92 4.22
13 1 8 47.69 7.72
13 1 -8 43.99 7.43
13 1 8 46.43 8.11
13 -1 8 47.2 8.23
-13 1 8 55.63 7.33
-13 -1 8 42.52 6.83
13 1 9 49.7 8.35
13 1 -9 55.49 8.35
13 1 9 68.07 9.21
13 -1 9 53.79 8.52
13 1 9 48.12 8.99
13 1 -9 62.5 8.86
-13 1 9 59.54 8
-13 -1 9 63.56 8.12
13 1 10 -1.86 3.42
13 1 -10 3.47 3.62
13 1 10 6.38 4.81
13 1 10 7.94 4.67
13 -1 10 -0.92 4.11
-13 1 10 0.73 3.03
13 1 -10 -1.9 3.39
-13 -1 10 -0.75 3.06
13 1 11 3.75 3.83
13 1 -11 2.62 3.49
13 1 11 3.87 4.74
13 1 11 7.11 4.87
13 -1 11 6.58 4.81
13 1 -11 3.81 3.61
-13 1 11 4.7 4.51
-13 1 11 3.65 3.45
-13 -1 11 6.86 3.73
13 -1 12 -1.16 4.13
13 1 12 -2.85 3.38
13 1 -12 4.4 4.14
13 1 12 6.54 4.8
13 1 12 3.07 4.45
13 -1 12 2.84 4.2
13 1 -12 -0.96 3.51
-13 1 12 5.68 4.61
-13 1 12 2.99 3.52
-13 -1 12 -2.32 4.01
13 -1 13 10.62 5.03
13 1 13 10.51 4.84
13 1 13 14.48 5.83
13 1 13 8.33 4.74
13 -1 13 21.26 5.73
13 -1 -13 18.86 5.2
13 1 -13 16.44 4.9
-13 1 13 14.3 4.68
-13 1 13 12.8 4.25
-13 -1 13 17.43 5.14
13 -1 14 16.78 6.05
13 1 14 31.96 6.41
13 1 14 17.36 6.03
13 1 14 16.79 5.89
13 -1 14 19.46 5.95
13 -1 -14 37.88 6.97
13 1 -14 34.04 6.49
-13 1 14 24.14 5.91
-13 1 14 20.77 5.13
-13 -1 14 12.85 4.62
13 -1 15 -2.43 3.58
13 1 15 2.92 3.97
13 1 15 -1.35 4.51
13 1 15 3.22 4.57
13 -1 15 8.96 4.68
-13 1 15 0.97 3.96
13 -1 -15 -0.94 3.46
13 1 -15 -0.98 3.99
-13 1 15 0.79 3.38
-13 1 15 2.35 3.19
-13 -1 15 -2.46 3.49
13 -1 16 1.23 4.65
13 1 16 2.76 4.75
13 1 16 0.99 3.52
13 1 16 1.1 4.14
13 -1 16 2.03 4.69
13 1 -16 3.39 4.5
13 -1 -16 -0.95 3.69
13 1 -16 -1.97 3.82
-13 1 16 6.99 4.61
-13 1 16 3.19 3.75
-13 1 16 -1.58 3.36
-13 -1 16 0.83 3.46
13 -1 17 25.02 6.69
13 1 17 37.53 8.14
13 1 17 34.83 6.95
13 1 17 42.08 7.96
13 -1 17 36.79 7.29
13 1 -17 28.47 7.09
13 -1 -17 28.61 6.36
13 1 -17 38.9 7.02
-13 1 17 36.2 7.29
-13 1 17 33.71 6.31
-13 1 17 23.12 5.69
-13 -1 17 25.34 5.88
13 1 18 2.83 4.53
13 1 18 2.02 3.81
13 1 18 -1.13 4.94
13 -1 18 -1.04 4.36
13 1 -18 -1.15 4.08
13 -1 -18 0.96 3.91
13 1 -18 1.01 3.7
-13 1 18 1.01 3.93
-13 1 18 7.31 4.28
-13 -1 18 0.86 3.49
13 1 19 10.07 5.73
13 1 19 4.07 4.16
13 1 19 10.3 5.68
13 -1 19 3.16 4.41
-13 1 19 9.35 4.73
13 1 -19 2.31 4.13
13 -1 -19 10.59 4.63
-13 1 19 3.27 3.65
13 1 -19 3.05 4.07
13 1 20 18.89 6.74
13 1 20 23.52 6.13
13 1 20 34.66 7.45
13 -1 20 21.57 6.44
13 1 -20 24.47 6.75
13 -1 -20 44.66 7.17
13 1 -20 26.76 6.69
-13 1 20 19.9 5.91
-13 1 -20 46.36 8.4
-13 1 20 22.31 5.39
13 1 21 14.52 5.16
13 -1 21 14.14 5.67
13 1 -21 5.86 5.24
13 -1 -21 0.98 3.93
-13 1 21 10.8 4.65
13 -1 22 2.19 5.07
13 -1 -22 2.96 3.83
13 -1 -23 40.76 7.46
14 1 0 1.85 3.28
-14 1 0 -0.67 2.81
14 1 1 12.92 4.84
14 1 -1 13.77 5.21
-14 1 -1 18.77 4.44
-14 1 1 14.31 4.12
-14 1 2 29.46 5.61
14 1 2 27.87 6.2
14 1 -2 29.3 6.18
14 1 2 34.13 6.7
-14 1 -2 25.25 5.17
14 1 3 14.87 4.82
14 1 -3 18.34 5.03
14 1 3 10.75 4.98
-14 1 -3 3.31 3.27
-14 1 3 17.47 4.47
14 1 4 1.87 3.65
14 1 -4 9.17 4.02
14 1 4 14.73 4.96
-14 1 -4 3.95 3.13
-14 1 4 6.33 3.56
14 1 5 12.25 4.52
14 1 -5 7.34 3.48
14 1 5 18.8 5.7
14 -1 5 14.16 5.45
-14 1 -5 13.71 3.95
-14 1 5 12.2 4.08
14 1 6 2.83 3.48
14 1 -6 4.6 4.2
14 1 6 11.91 5.09
14 -1 6 10.41 4.93
-14 1 6 1.44 3.04
-14 -1 6 13.34 4.44
14 1 7 4.77 3.61
14 1 -7 11.97 4.72
14 1 7 1.01 3.93
14 -1 7 7.61 4.73
-14 1 7 0.74 3.62
-14 -1 7 8.38 3.91
14 1 8 0.96 4.1
14 1 -8 11.1 4.82
14 1 8 12.17 5.65
14 1 8 1.34 4.48
14 -1 8 10.55 5.48
-14 1 8 5.96 3.47
-14 -1 8 6.94 3.78
14 1 9 64.74 9.45
14 1 -9 47.22 8.46
14 1 9 87.49 12.17
14 1 9 83.18 10.68
14 -1 9 73.16 10.14
14 1 -9 59.83 10.26
-14 1 9 55.63 8.16
-14 -1 9 58.63 8.4
14 1 10 75.58 10.79
14 1 -10 76.29 10.7
14 -1 10 110.78 12.41
14 1 10 95.26 13.08
14 1 10 95.96 11.95
14 1 -10 96.8 11.95
-14 -1 10 74.68 10.12
-14 1 10 75.24 9.92
14 1 11 9.85 4.91
14 1 -11 14.97 5.5
14 1 11 17.79 6.36
14 1 11 27.27 6.87
14 -1 11 33.47 7.51
14 1 -11 27.48 6.36
-14 1 11 28.25 5.75
-14 -1 11 11.39 4.78
14 1 12 6.92 4.57
14 1 12 1.39 4.62
14 1 12 8.56 4.86
14 -1 12 -1 4.35
14 -1 -12 6.03 4.2
14 1 -12 1.03 4.19
-14 1 12 4.01 3.57
-14 -1 12 0.83 3.64
14 1 13 3 4.1
14 1 13 7.02 4.69
14 1 13 15.08 5.84
14 -1 13 9.03 5.29
14 -1 -13 4.03 4.22
14 1 -13 3.09 4.87
-14 1 13 5.01 3.73
-14 1 13 3.23 3.61
-14 -1 13 6.75 3.99
14 1 14 13.05 5.01
14 1 14 16.52 5.81
14 -1 14 30.59 6.81
14 -1 -14 21.22 6.39
14 1 -14 12.44 5.64
-14 -1 14 7.69 4.62
14 -1 15 28.1 6.62
14 -1 -15 18.14 5.9
14 -1 16 5.23 4.84
14 -1 -16 3.04 3.83
-15 1 0 0.72 2.93
-15 1 -1 5.65 3.51
-15 1 1 4.35 3.37
-15 1 2 10.35 4.17
-15 1 3 2.23 2.89
0 2 0 551.1 43.24
0 2 0 551.7 42.94
0 2 0 516.62 44.99
0 -2 0 699.75 44.51
0 -2 0 592.36 43.53
0 2 0 561.21 43.56
0 2 1 2.47 1.5
0 2 -1 -3.64 1.57
0 2 1 -1.38 3.2
0 2 -1 -1.37 3.12
0 2 -1 -0.62 1.87
0 2 -1 4.29 1.85
0 2 -1 4.43 1.94
0 -2 1 3 2.38
0 -2 -1 -0.43 2.42
0 2 1 3.17 1.9
0 2 -1 0.37 1.91
0 -2 -1 7.26 1.85
0 2 -2 163.22 13.25
0 2 -2 162.56 15.08
0 2 -2 145.9 13.19
0 -2 -2 146.12 13.26
0 -2 2 169.04 14.01
0 -2 -2 175.13 14.12
0 2 -2 157.67 13.51
0 2 -3 0.69 2.82
0 -2 -3 0.85 2.94
0 2 3 0.91 1.91
0 2 -3 3.94 1.77
0 -2 -3 4.96 2.24
0 2 -3 6.84 2.09
0 -2 3 5.57 2.97
0 -2 -3 9.87 2.99
0 2 -3 5.06 2.15
0 2 -4 748.92 56.34
0 2 -4 744.39 58.25
0 -2 -4 682.35 58.71
0 -2 -4 698.84 56.59
0 2 -4 670.42 56.14
0 -2 4 894.95 57.36
0 -2 -4 866.61 57.25
0 2 -4 765.83 56.76
0 2 4 707.2 56.16
0 2 -4 770.52 56.72
0 2 4 785.25 57.41
0 2 5 3.62 2.72
0 2 5 -0.31 1.81
0 -2 -5 4.35 3.46
0 2 -5 -4.82 3.24
0 2 -5 -0.94 1.44
0 2 -5 1.35 1.77
0 -2 -5 -0.84 2.29
0 2 -5 -0.64 1.97
0 -2 5 4.28 2.22
0 -2 -5 3.86 2.75
0 2 -5 -1.22 1.92
0 2 -5 0.4 1.73
0 2 6 1.06 2.21
0 2 6 1.61 1.76
0 -2 -6 7.92 3.84
0 2 -6 2.77 1.86
0 -2 -6 0.88 2.24
0 2 -6 1.6 1.64
0 2 -6 3.69 1.49
0 -2 6 2.56 2.44
0 -2 -6 2.14 2.13
0 2 -6 5 2.29
0 2 -6 2.94 1.84
0 2 7 2.16 2.5
0 2 7 0.33 1.68
0 -2 -7 0.89 2.37
0 2 -7 0.36 1.82
0 -2 -7 -1.37 2.33
0 2 -7 -0.95 1.7
0 2 -7 0.58 1.32
0 -2 7 5.04 2.18
0 -2 -7 3.84 2.34
0 2 -7 0.85 1.81
0 2 -7 0.87 1.94
0 2 8 201.22 17.29
0 -2 -8 195.31 18.86
0 2 -8 170.76 15.85
0 -2 8 239.89 17.08
0 -2 -8 234.15 17.1
0 2 -8 191.09 16.57
0 2 8 185.88 16.18
0 2 -8 203.53 16.81
0 2 -8 192.06 16.26
0 2 9 7.33 3.14
0 -2 -9 7.3 3.63
0 2 -9 0.37 1.71
0 2 -9 1.04 1.69
0 -2 9 5.44 2.61
0 -2 -9 1.68 2.48
0 2 -9 1.32 1.84
0 2 -9 0.94 1.92
0 2 9 2.5 1.83
0 2 10 118.53 12.03
0 2 -10 110.23 10.94
0 -2 -10 138.87 14.1
0 2 10 114.46 11.07
0 -2 -10 143.75 11.82
0 -2 10 160.66 11.97
0 2 -10 119.83 11.44
0 2 -10 133.37 11.83
0 2 -10 126.24 11.22
0 2 11 3.57 3.03
0 -2 -11 11.27 4.2
0 2 -11 4.35 2.43
0 -2 11 8.54 2.13
0 2 -11 8.43 2.39
0 -2 11 9.52 2.93
0 -2 -11 10 3.15
0 2 11 3.47 2.32
0 2 -11 4.14 2.5
0 2 11 4.87 1.93
0 2 -11 6.61 2.64
0 2 12 1320.76 93.03
0 -2 -12 1108.58 94.18
0 2 12 1243.18 91.75
0 2 12 1133.43 90.75
0 -2 12 1189.06 91.16
0 2 -12 1092.17 91.59
0 -2 -12 1223.9 92.04
0 -2 12 1503.18 92.28
0 -2 -12 1426.72 92.13
0 2 -12 1209.11 92
0 2 12 1249.52 91.08
0 2 -12 1222.53 92.38
0 2 -12 1229.48 91.7
0 2 13 11.29 3.6
0 -2 -13 6.8 3.98
0 2 -13 5.04 2.6
0 -2 -13 6.8 2.73
0 2 -13 2.29 2.44
0 2 13 7.38 2.1
0 -2 -13 6.16 2.81
0 -2 13 2.31 2.14
0 2 -13 7.15 2.78
0 2 13 5 2.14
0 2 -13 12.86 3.61
0 2 14 802.88 59.81
0 -2 -14 696.62 60.93
0 2 14 744.81 57.69
0 -2 -14 928.59 58.91
0 2 -14 709.11 58.61
0 -2 -14 775.04 58.92
0 2 -14 742.16 58.77
0 2 14 779.1 57.62
0 2 -14 750.31 59.26
0 2 -14 797.34 58.6
0 2 15 5.38 3.44
0 2 -15 4.87 2.57
0 -2 -15 2.02 3.12
0 -2 -15 5.74 3.06
0 2 -15 6.17 2.48
0 2 15 2.41 2.11
0 2 -15 3.98 2.52
0 2 15 2.82 1.84
0 2 -15 5.53 3.2
0 2 16 520.58 41.43
0 -2 -16 508.89 42.98
0 2 16 497.66 39.35
0 2 -16 468.36 40.29
0 -2 -16 521.73 40.61
0 2 -16 547.3 40.6
0 2 16 538.36 39.07
0 2 -16 522.56 41.1
0 2 -16 530.59 40.14
0 2 17 5.79 3.92
0 2 -17 6.05 2.68
0 -2 -17 2.82 2.46
0 -2 -17 3.15 3.96
0 2 -17 -1.14 2.59
0 2 -17 3.65 2.58
0 2 17 1.36 1.63
0 2 -17 0.66 2.51
0 2 17 0.24 1.46
0 2 18 1.48 3.09
0 -2 -18 1.18 2.82
0 2 -18 0.47 2.07
0 -2 -18 2.14 3.29
0 2 -18 0.6 2.61
0 2 -18 3.21 2.52
0 2 -18 1.4 2.64
0 2 19 4.63 3.29
0 -2 -19 1.83 2.55
0 2 -19 5.32 2.66
0 -2 -19 5.46 3.89
0 2 -19 -2.51 2.74
0 2 19 3.78 1.75
0 2 -19 1.1 2.29
0 2 -19 2.16 2.56
0 2 20 177.84 16.65
0 -2 -20 157.56 17.49
0 2 20 171.26 14.55
0 2 -20 155.2 15.48
0 2 -20 156.44 15.97
0 -2 -20 197.4 16.07
0 2 -20 155.47 15.1
0 2 -20 190.4 15.24
0 2 21 10.1 4.11
0 -2 -21 1.32 2.76
0 2 -21 6.13 2.88
0 2 -21 2.75 3.06
0 2 21 1.25 2.53
0 2 -21 2.88 2.3
0 2 -21 5.56 3.24
0 2 22 6.89 3.6
0 -2 -22 14.36 3.83
0 2 -22 11.49 3.28
0 2 -22 7.88 3.52
0 2 22 14.08 3.37
0 2 -22 11.77 3.56
0 2 -22 8.98 3.64
0 2 23 3.61 3.97
0 -2 -23 10.62 3.93
0 2 -23 14.51 3.78
0 2 -23 2.98 3.56
0 2 23 7.36 2.46
0 2 -23 7.2 3.21
0 2 -23 14.43 4.5
0 2 24 33.25 6.94
0 -2 -24 44.74 6.57
0 2 -24 43.08 5.73
0 2 24 48.45 5.48
0 2 -24 39.55 6.2
0 2 -24 29.4 5.34
0 2 -24 24.64 5.97
0 2 25 6.02 4.21
0 -2 -25 16.69 4.45
0 2 -25 11.76 3.79
0 2 -25 -3.22 4.26
0 2 25 5 2.63
0 2 -25 9.35 3.31
0 2 -25 5.42 4.28
0 -2 -26 11 3.85
0 2 26 15.39 5.18
0 2 -26 9.68 3.42
0 2 -26 3.34 3.59
0 2 26 1.56 2.92
0 2 -26 3.8 2.9
0 2 -26 5.6 4.17
0 -2 -27 -2.43 3.23
0 2 27 3.25 4.19
0 2 -27 2.9 2.96
0 2 -27 -6.06 4.42
0 2 27 2.7 2.67
0 2 -27 3.88 3.04
0 2 -27 -1.91 3.4
0 -2 -28 14.24 4.74
0 2 28 6.87 5.11
0 2 -28 5.35 3.16
0 2 -28 -0.9 4.46
0 2 28 7.34 3.09
0 2 -28 12.52 3.74
0 2 -28 5.89 4.39
0 -2 -29 2.59 3.45
0 2 29 8.18 5.31
0 2 -29 3.01 3.14
0 2 -29 0.93 3.97
0 2 29 12.87 3.27
0 2 -29 7.35 3.33
0 2 -29 -1.01 3.81
0 2 30 174.46 19.39
0 2 30 215.45 16.71
0 2 -30 156.79 17.48
0 -2 -30 180.65 17.66
0 2 -30 155.61 16.31
0 2 -30 211.47 16.77
0 2 -30 148.2 17.79
0 -2 -31 1.83 3.28
0 2 31 9.07 5.42
0 2 -31 11.19 3.81
0 2 -31 5.92 4.4
0 2 31 -0.63 3.49
0 2 -31 6.88 3.31
0 -2 -32 2.83 3.84
0 2 32 -1.32 4.99
0 2 -32 12.71 3.88
0 2 -32 -2.03 4.15
0 2 32 2.58 3.3
0 -2 -33 2.9 3.95
0 2 33 2.75 4.74
0 2 -33 4.48 3.02
0 2 -33 -2.09 4.16
0 2 33 2.02 3.54
0 -2 -34 5.96 3.98
0 2 -34 11.77 4.02
0 2 -34 -1.08 4.3
0 2 34 13.17 4.07
0 -2 -35 4.08 4.25
0 2 -35 5.26 3.41
0 2 -35 -2.21 4.5
0 2 35 -4.28 4.06
0 -2 -36 1.05 3.6
0 2 -36 -1.34 2.92
0 2 -36 -3.4 4.84
0 2 36 -0.73 3.51
0 -2 -37 5.35 4.36
0 2 -37 4.7 3.22
0 2 -37 -4.68 4.99
0 2 37 -0.76 3.95
0 -2 -38 1.1 3.51
0 2 -38 9.58 3.75
0 2 -38 3.6 4.65
0 2 38 -3.91 4.29
0 -2 -39 1.12 3.73
0 2 -39 1.37 3.04
0 2 -39 -4.91 5.24
0 2 39 -4.01 4.67
0 -2 -40 13.72 5.06
0 2 40 11.48 4.47
1 2 0 128.81 11.11
1 2 0 114.85 11.03
-1 -2 0 139.85 14.23
-1 2 0 123.89 12.95
1 -2 0 111.58 14.45
1 2 0 141.81 12.26
-1 -2 0 135.47 12.18
-1 2 0 112.81 11.37
1 -2 0 189.07 12.35
1 2 0 114.5 10.8
-1 2 0 153.31 11.87
-1 2 0 136.39 11.53
-1 -2 0 173.83 12.29
1 2 0 152.58 12.39
1 2 -1 344.9 24.7
1 2 1 316.64 24.49
1 2 1 271.44 24.49
1 2 -1 278.18 24.23
-1 -2 1 348.92 27.97
-1 -2 -1 299.58 27.2
-1 2 1 262.91 26.05
-1 2 -1 314.51 26.54
1 -2 -1 268.72 26.74
1 -2 -1 326.24 28.69
1 -2 1 324.36 28.73
1 2 -1 341.31 25.48
-1 -2 -1 352.8 25.76
1 -2 -1 336.62 24.68
-1 2 -1 249.58 24.36
-1 2 1 228.6 24.61
1 2 1 291.79 24.09
1 -2 1 501.93 26.11
1 -2 -1 397.56 25.51
-1 -2 -1 403.1 25.62
-1 -2 1 453.2 25.97
-1 2 1 287.21 24.77
-1 2 -1 350.78 25.23
1 2 -1 289.48 24.19
-1 2 -1 364.7 25.12
1 2 1 320.1 25.52
1 2 2 823.21 62.56
1 2 2 765.72 62.82
-1 2 -2 818.35 63.34
1 2 -2 779.6 62.42
1 2 -2 779.09 62.32
-1 -2 2 818.08 65.54
-1 -2 -2 806.99 65.57
-1 2 -2 779.62 64.65
1 -2 -2 689.86 64.94
1 -2 -2 757.51 66.44
1 -2 2 787.18 66.64
1 2 -2 954.97 63.67
1 -2 -2 888.96 62.9
-1 -2 -2 940.29 63.91
-1 2 -2 644.36 62.33
1 -2 -2 1110.8 63.86
1 -2 2 1130.34 63.87
-1 -2 -2 1041.68 63.81
-1 -2 2 999.37 63.65
-1 2 2 682.09 63.09
-1 2 2 863.03 63.08
-1 2 -2 967.36 63.55
-1 2 -2 892.07 63.21
1 2 -2 812.61 62.67
1 2 2 849.81 63.82
1 2 3 542.34 40.7
-1 2 -3 531.34 41.37
1 2 3 463.89 41
1 2 -3 439.01 40.51
-1 -2 3 449.56 43.01
-1 -2 -3 539.56 43.76
-1 2 -3 478.68 42.71
1 -2 -3 527.69 43.81
1 -2 -3 432.91 43.95
1 -2 3 476.52 44.34
1 2 -3 590.54 41.65
1 -2 -3 558.75 41.12
-1 -2 -3 609.2 42.19
-1 2 3 419.19 41.32
1 -2 3 767.72 42.16
1 -2 -3 702.44 41.85
-1 -2 -3 673.98 41.89
-1 -2 3 601.4 41.63
1 2 -3 503 41.34
-1 2 3 569.88 41.17
-1 2 -3 574.41 41.54
-1 2 -3 520.44 41.24
1 2 -3 516.32 40.81
1 2 3 587.43 42.19
1 2 4 206.33 17.6
-1 2 -4 194.66 16.94
1 2 4 174.31 16.82
-1 -2 4 193.27 19.14
-1 -2 -4 196.17 19.14
-1 2 -4 187.99 18.21
1 -2 -4 186.87 19.05
1 -2 -4 146 19.19
1 -2 4 181.11 19.95
1 2 4 162.55 16.73
1 -2 -4 209.76 16.89
-1 -2 -4 220.01 17.75
1 2 -4 242.91 17.43
-1 2 4 157.48 17.15
1 -2 4 271.12 17.61
1 -2 -4 285.2 17.72
-1 -2 -4 235.89 17.36
-1 -2 4 256.35 17.49
-1 2 4 198.36 16.66
1 2 -4 215.22 17.25
-1 2 -4 234.36 17.33
-1 2 -4 178.25 16.82
1 2 -4 212.44 16.66
1 2 5 130.09 11.26
-1 2 -5 113.52 10.34
1 2 5 88.96 10.05
-1 -2 5 103.51 12.32
-1 -2 -5 115.83 12.67
1 -2 -5 127.46 12.91
-1 2 -5 100.34 11.4
-1 -2 -5 102.42 12.5
1 -2 -5 97.96 12.99
1 -2 5 102.15 13.23
1 -2 -5 125.27 10.4
-1 -2 -5 130.55 11.28
1 2 -5 124.44 10.56
1 2 -5 92.37 9.37
-1 2 -5 85.13 9.43
-1 2 5 94.05 10.79
1 2 5 115.66 10.48
1 -2 5 153.13 10.91
1 -2 -5 157.88 10.91
-1 -2 -5 128.1 10.55
-1 -2 5 156.26 10.94
-1 2 5 121.29 10.09
1 2 -5 133.09 10.82
-1 2 -5 107.01 10.29
-1 2 -5 110.78 10.37
1 2 -5 130.5 10.19
1 2 6 11.87 3.19
-1 -2 6 13.04 4.48
-1 -2 -6 27.95 5.44
1 2 6 9.57 2.88
1 -2 -6 8.79 3.99
-1 2 -6 14.64 3.74
-1 -2 -6 12.3 4.29
1 2 -6 9.65 2.43
1 -2 -6 13.83 4.98
1 -2 6 3.19 3.63
1 -2 -6 6.74 2.62
-1 -2 -6 12.55 3.72
-1 2 -6 11.74 2.9
1 2 -6 11.05 3.08
-1 2 -6 6.92 2.11
-1 -2 -6 21.25 3.22
-1 -2 6 18.73 3.22
1 -2 6 24.45 3.43
1 -2 -6 15.39 3.15
1 2 -6 10.67 2.81
-1 2 -6 18.99 3.16
-1 2 6 6.27 3.11
-1 2 -6 9.57 2.72
1 2 -6 7.65 2.05
1 2 7 139.56 11.92
-1 -2 7 105.09 10.54
-1 -2 7 104.37 12.54
-1 -2 -7 106.12 12.59
1 -2 -7 119.46 13.23
-1 2 -7 112.6 12.09
-1 -2 -7 135.02 13.71
1 -2 -7 113.65 13.89
1 -2 7 111.45 13.73
-1 -2 -7 135.44 11.86
1 2 -7 130.22 11.11
1 2 -7 95.16 10.08
-1 2 -7 107.79 10.37
1 2 7 113.51 11.01
-1 2 7 97.12 11.65
-1 2 7 116.04 10.18
1 -2 7 151.15 11.26
1 -2 -7 153.37 11.29
-1 -2 -7 141.64 11.23
-1 -2 7 140.03 11.13
1 2 -7 126.94 11.3
-1 2 -7 135.47 11.33
1 2 -7 124.73 11.33
-1 2 -7 131.64 11.32
-1 2 -7 134.43 11.14
1 2 -7 121.33 10.62
-1 2 7 135.68 12.08
-1 2 -8 40.8 5.16
1 2 8 63.07 6.51
-1 -2 8 31.57 4.67
-1 -2 8 43.19 6.96
-1 -2 -8 42.8 7.1
1 -2 -8 33.46 6.64
-1 -2 -8 31.46 6.52
-1 2 -8 32.04 5.77
1 -2 -8 36.05 7.28
1 -2 8 30.83 7.11
-1 -2 -8 44.51 5.97
1 2 -8 47.52 5.36
1 2 -8 32.19 4.34
1 2 8 40.26 5.29
-1 2 -8 28.73 4.33
-1 2 8 34.66 4.16
-1 2 8 27.4 5.57
1 -2 8 61.1 5.62
1 -2 -8 70.18 5.75
-1 -2 -8 52.7 5.38
-1 -2 8 57.26 5.43
-1 2 -8 45.84 5.28
1 2 -8 32.93 5.05
1 2 -8 43.76 5.42
-1 2 -8 36.94 5.09
1 2 -8 38.34 4.67
-1 2 8 53.75 6.28
1 2 9 170.28 14.76
-1 -2 9 158.85 15.98
-1 -2 -9 114.59 15.07
1 -2 -9 172.4 16.49
-1 -2 -9 168.34 16.41
-1 2 -9 153.34 15.18
1 -2 -9 129.51 16.36
1 -2 9 108.24 15.63
1 2 9 150.12 13.73
-1 2 -9 128.98 13.3
-1 2 9 158.22 12.92
1 -2 9 200.82 14.25
1 -2 -9 183.91 13.95
-1 -2 -9 184.73 13.97
-1 -2 9 189.44 14.01
1 2 -9 171.11 14.21
-1 2 -9 160.41 13.97
1 2 -9 143 13.26
1 2 -9 182.07 14.51
-1 2 -9 148.96 14.05
1 2 -9 152.81 13.45
-1 2 9 180.67 15.06
-1 2 -9 176.91 14.1
-1 2 10 68.75 7.24
1 2 10 50.6 6.63
-1 -2 -10 31.33 6.61
1 -2 -10 43.95 7.5
-1 -2 -10 49.69 8.09
1 -2 -10 37.06 7.62
1 -2 10 50.81 8.85
1 2 10 53.28 6.05
1 2 -10 38.84 5.05
-1 2 -10 37.32 5.11
1 -2 10 65.27 6.04
1 -2 -10 61.89 5.84
-1 -2 -10 61.47 5.92
-1 -2 10 50.13 5.62
1 2 -10 41.71 5.67
-1 2 -10 48.88 5.79
-1 2 10 39.79 5
1 2 -10 48.46 6.06
-1 2 -10 58.25 6.35
1 2 -10 44.15 5.35
-1 2 -10 43.62 5.47
-1 2 11 214.17 18.75
1 2 11 191.9 18.46
1 -2 -11 220.52 20.55
-1 -2 -11 221.68 20.54
1 -2 -11 173.13 20.39
1 -2 11 159.69 19.85
-1 2 -11 157.08 17.25
1 -2 11 204.51 17.18
1 2 -11 160.53 17.2
1 -2 -11 202.93 17.69
1 2 -11 247.56 18.58
1 -2 11 282.3 18.44
1 -2 -11 254.23 18.01
-1 -2 -11 263.72 18.17
-1 -2 11 261.72 18
-1 2 -11 195.76 17.76
1 2 -11 217.23 18.36
-1 2 11 222.52 17.37
-1 2 -11 213.89 18.4
1 2 -11 219.97 17.59
-1 2 -11 233.87 18.06
-1 2 12 317.5 22.61
1 2 12 305.58 22.53
1 -2 -12 257.38 23.77
-1 -2 -12 250.25 23.57
-1 2 12 249.47 20.15
1 -2 -12 185.57 23.13
1 -2 12 212.94 23.58
1 2 12 239.03 20.07
-1 -2 12 216.24 20.1
1 -2 12 218.88 20.26
1 2 -12 228.12 20.64
1 -2 -12 256.99 21.01
1 -2 12 332.56 21.41
1 -2 -12 328.83 21.37
-1 -2 -12 315.86 21.18
-1 -2 12 281.91 20.96
1 2 -12 225.16 20.94
-1 2 -12 294.18 21.53
1 2 12 246.15 20.08
-1 2 12 258.88 20.45
-1 2 -12 221.47 20.77
1 2 -12 244.61 21.34
-1 2 -12 244.35 21.5
1 2 -12 283.41 20.93
-1 2 -12 287.37 21.31
-1 2 13 76.78 8.28
1 2 13 59.27 7.76
-1 2 -13 54.12 6.77
1 -2 -13 79.12 9.96
-1 -2 -13 46.14 8.41
-1 2 13 41.84 5.75
1 -2 -13 48.29 8.82
1 -2 13 46.25 9.21
1 2 13 50.32 6
-1 -2 13 63.23 6.4
1 -2 13 73.12 6.71
1 -2 13 97.72 7.64
1 -2 -13 79.22 7.15
-1 -2 -13 74.71 6.94
-1 -2 13 84.53 7.1
1 2 -13 73.73 7.42
-1 2 -13 58.09 6.92
1 2 13 51.11 5.81
-1 2 13 65.66 6.35
1 2 -13 50.54 6.5
1 2 -13 71.71 7.75
-1 2 -13 64.71 7.59
1 2 -13 68.59 6.79
-1 2 -13 71.92 7.31
1 -2 -13 56.24 6.73
-1 2 14 204.59 18.5
1 2 14 221.02 18.95
1 2 -14 178.78 17.32
1 -2 -14 191.72 19.96
-1 -2 -14 202.08 19.95
-1 2 14 190.25 16.63
1 -2 -14 132.71 19.15
1 -2 14 149.63 19.32
1 2 14 201.26 16.83
1 2 -14 222.3 17.49
-1 2 -14 207.91 17.88
1 -2 -14 207.11 17.66
-1 -2 -14 216.95 18.35
1 -2 14 260.53 17.93
1 -2 -14 283.44 18.1
-1 -2 -14 235.93 17.5
-1 -2 14 217.3 17.34
1 2 -14 197.26 17.77
-1 2 -14 190.13 17.53
-1 2 14 229 16.88
1 2 -14 204.97 18.13
-1 2 -14 199.2 18.31
-1 2 -14 204.76 17.61
-1 2 15 14.36 4.43
1 2 15 21.96 4.99
1 -2 -15 11.59 3.4
1 -2 -15 11.36 4.61
-1 -2 -15 8.92 4.61
-1 2 -15 17.35 3.66
1 -2 -15 12.48 5.33
-1 -2 -15 12.54 3.76
1 2 -15 14.57 3.72
-1 2 15 10.55 2.71
-1 2 -15 13.31 3.27
1 2 15 13.95 3.04
1 -2 15 18.37 3.76
-1 -2 -15 23.77 3.82
-1 -2 15 20.76 3.5
1 -2 -15 21.51 3.84
1 2 -15 6.51 3.4
-1 2 -15 8.62 3.26
1 2 -15 31.52 4.31
1 2 -15 17.84 4.39
-1 2 15 8.29 2.48
-1 2 -15 15.9 4.25
-1 2 16 133.08 13.71
1 2 16 144.58 14.29
-1 2 -16 133.51 13.11
-1 -2 -16 133.37 15.4
-1 2 16 124.12 11.99
1 2 -16 113.96 12.67
1 2 16 124.91 12.08
-1 -2 -16 143.76 13.59
1 -2 16 193.55 13.5
1 -2 -16 167.74 13.02
-1 -2 -16 159.19 12.73
1 2 -16 172.31 13.67
-1 2 -16 129.85 13
1 -2 -16 169.58 13.54
-1 2 16 153.9 12.05
1 2 -16 134.06 13.58
1 2 -16 152.18 12.84
-1 2 -16 112.14 13.35
-1 2 -16 148.17 13.01
-1 2 17 98.44 11.04
1 2 17 111.72 11.84
-1 -2 -17 92.21 12.21
1 -2 -17 154.27 10.67
-1 2 17 105.02 9.49
-1 2 -17 79.55 9.98
1 2 -17 83.13 9.96
1 2 17 104.17 9.54
1 -2 -17 120.68 10.72
-1 -2 -17 115.82 11.05
-1 -2 -17 116.42 9.78
1 2 -17 99.4 10.21
-1 2 -17 90.08 10.18
-1 2 17 103.91 9.09
1 2 -17 84.25 10.52
1 2 -17 111.87 10.01
-1 2 -17 96.36 11.17
-1 2 -17 110.78 10.34
-1 2 18 35.29 4.7
-1 2 18 33.67 6.11
1 2 18 34.27 6.28
1 -2 -18 32.66 5.44
1 2 -18 37.73 5.33
-1 -2 -18 43.92 7.75
1 2 -18 29.89 5.29
-1 2 -18 31.53 5.34
-1 -2 -18 48.86 6.54
1 2 18 37.9 4.89
1 2 -18 35.32 5.5
-1 2 -18 41.76 5.65
-1 2 18 43.69 4.46
-1 2 -18 54.53 6.07
1 2 -18 35.99 6.07
-1 2 -18 26.32 5.72
-1 2 19 148.3 14.75
1 2 19 133.91 14.95
-1 -2 -19 191.27 17.32
-1 2 19 158.75 12.88
1 2 19 144.39 12.89
1 2 -19 123.85 13.48
1 -2 -19 160.54 14.11
-1 -2 -19 176.87 14.7
-1 2 -19 115.8 13.49
1 2 -19 140.52 13.53
-1 2 -19 124.02 13.36
1 2 -19 146.03 13.2
1 2 -19 124.45 13.98
-1 2 19 173.04 12.44
-1 2 -19 141.92 14.65
-1 2 -19 174.4 13.91
-1 2 20 42.99 6.74
1 2 20 39.45 6.88
1 -2 -20 47.05 6.17
1 2 -20 27.29 4.8
-1 2 -20 36.53 5.48
-1 -2 -20 42.32 7.65
-1 -2 -20 43.54 6.09
-1 2 20 47.79 5.25
1 2 -20 31.75 5.49
-1 2 -20 37.85 5.7
1 2 20 39.79 5.03
1 2 -20 27.47 5.18
-1 2 -20 37.45 5.7
1 2 -20 34.9 6.01
-1 2 -20 32.56 6.22
-1 2 21 46.3 7.11
1 -2 -21 46.49 6.44
1 2 21 47.08 7.78
1 2 -21 40.5 5.8
-1 -2 -21 54.07 8.59
-1 2 21 42.24 5.54
1 2 21 58.82 6.07
-1 -2 -21 60.94 7.38
1 2 -21 54.14 6.94
-1 2 -21 38.07 6.44
1 2 -21 46.62 6.22
-1 2 -21 35.39 5.84
-1 2 -21 50.85 6.33
1 2 -21 38.08 6.79
-1 2 -21 48.27 7.25
1 -2 -22 43.77 6.34
-1 2 22 38.28 6.86
1 2 22 51.75 7.97
1 2 -22 40.35 5.72
-1 2 -22 46.77 6.1
-1 -2 -22 39.45 7.81
-1 2 22 45.94 5.7
1 2 22 51.44 6.11
-1 -2 -22 68.15 7.76
1 2 -22 31.05 5.98
-1 2 -22 35.99 6.33
1 2 -22 44.27 6.1
-1 2 -22 43.29 6.24
1 2 -22 32.8 6.45
-1 2 -22 45.79 7.32
-1 2 23 144.19 15.39
1 2 23 145.29 15.99
-1 -2 -23 146.16 16.5
-1 2 23 172.95 13.62
1 2 23 161.62 13.62
1 2 -23 149.25 14.71
-1 2 -23 106.21 13.88
1 -2 -23 157.23 14.61
-1 -2 -23 185.25 15.58
1 2 -23 142.24 13.91
-1 2 -23 137.97 14.02
1 2 -23 164.46 13.86
1 2 -23 123.58 14.71
-1 2 -23 167.43 14.11
-1 2 -23 140.42 15.26
-1 2 24 219.57 20.01
1 2 24 171.19 20.01
-1 -2 -24 183.98 20.57
-1 2 24 237.25 18.02
1 2 24 239 18.22
1 2 -24 173.66 18.63
1 -2 -24 258.6 19.63
-1 2 -24 178.54 18.79
-1 -2 -24 250.61 19.97
1 2 -24 212.13 18.46
-1 2 -24 180.46 18.23
1 2 -24 226.52 18.21
-1 2 -24 209.36 18.25
1 2 -24 185.13 19.37
-1 2 -24 192.28 19.69
-1 2 25 122.16 13.3
1 2 25 103.37 13.39
-1 -2 -25 99.28 13.57
-1 2 25 126.73 11.08
1 2 25 121.81 11.14
-1 2 -25 92.27 11.1
1 -2 -25 117.97 12.1
1 2 -25 108.51 12.23
-1 2 -25 80.7 11.67
-1 -2 -25 117.02 12.41
1 2 -25 111.87 11.45
1 2 -25 137.12 11.59
-1 2 -25 125.52 11.55
1 2 -25 104.52 12.5
-1 2 -25 105.17 12.68
1 -2 -26 55.4 7.8
-1 2 26 57.38 8.59
1 2 26 55.14 9.08
-1 -2 -26 62.78 8.36
-1 -2 -26 54.93 9.51
-1 2 26 64.07 7.1
1 2 -26 62.08 8.36
-1 2 -26 46.07 7.64
1 2 26 53.04 6.95
1 2 -26 77.68 7.75
1 2 -26 54.09 7.23
-1 2 -26 38.42 6.82
-1 2 -26 60.11 7.32
1 2 -26 60.99 8.79
-1 2 -26 40.78 7.82
-1 2 27 104.2 12.26
1 2 27 107.44 13.3
-1 2 27 105.06 9.87
1 2 27 101.69 9.98
1 -2 -27 106.03 11.35
1 2 -27 85.16 10.95
-1 -2 -27 101.66 11.74
-1 2 -27 73.3 10.62
1 2 -27 90.81 10.11
-1 2 -27 75.05 9.86
1 2 -27 106.69 10.3
-1 2 -27 98.98 10.22
1 2 -27 87.56 11.47
-1 2 28 160.07 17.54
1 2 28 135.55 17.7
-1 2 28 195.76 15.67
1 2 28 181.15 15.55
1 -2 -28 192.97 17.22
1 2 -28 166.4 16.87
-1 2 -28 116.9 15.86
-1 -2 -28 199.07 17.48
1 2 -28 159.78 15.58
-1 2 -28 124.83 15.13
1 2 -28 203.96 15.86
-1 2 -28 204.5 16.15
1 2 -28 158.93 17.18
1 2 -29 162.84 17.48
-1 2 29 169.52 18.72
1 2 29 152.42 18.98
-1 2 29 197.6 16.36
1 2 29 213.56 16.76
1 -2 -29 201.78 17.85
-1 2 -29 140.59 17.22
-1 -2 -29 211.44 18.48
1 2 -29 162.05 16.25
1 2 -29 175.41 16.12
-1 2 -29 186.2 16.46
1 2 -29 161.68 17.85
-1 2 30 132.54 15.9
1 2 30 110.86 15.82
-1 2 30 146.78 13.49
1 2 30 160.52 13.86
1 -2 -30 141.41 14.67
1 2 -30 117.12 14.55
-1 2 -30 133 15.11
-1 -2 -30 149.55 15.23
1 2 -30 118.62 13.35
1 2 -30 138.57 13.5
-1 2 -30 176.44 14.27
1 2 -30 133.8 15.26
1 -2 -31 25.93 5.75
-1 2 31 26.08 7.19
1 2 31 19.09 6.94
1 2 -31 28.95 5.06
-1 -2 -31 32.07 6.43
-1 2 -31 34 5.63
1 2 -31 24.56 6.31
-1 2 -31 28.23 6.4
-1 2 31 40.07 5.91
1 2 31 20.9 4.99
-1 2 31 23.93 8.44
1 2 -31 23.85 6.03
1 -2 -32 22.1 5.54
1 2 -32 24.07 4.79
1 2 32 14.18 6.2
-1 -2 -32 21.31 5.75
-1 2 -32 20.09 4.56
1 2 -32 15.19 5.5
-1 2 -32 12.46 5.16
-1 2 32 20.36 4.83
1 2 32 21.56 4.76
-1 2 32 19.95 7.72
1 2 -32 13.79 5.18
1 -2 -33 11.37 4.22
1 2 -33 6.83 3.75
1 2 33 4.34 5.15
-1 -2 -33 8.95 4.16
-1 2 -33 6.61 3.82
1 2 -33 1.04 3.83
-1 2 -33 -1.07 4.36
-1 2 33 1.31 3.56
1 2 33 1.39 3.56
-1 2 33 -1.57 6.56
1 -2 -34 24.35 5.92
1 2 -34 20.93 4.67
-1 -2 -34 16.32 5.56
1 2 34 14.89 6.9
-1 2 -34 20.62 4.8
1 2 -34 16.09 5.42
-1 2 -34 21.96 5.79
-1 2 34 19.75 4.8
1 2 34 26.48 5.41
-1 2 34 12.88 7.58
1 -2 -35 15 5.04
1 2 -35 36.27 5.53
-1 -2 -35 15.68 5.42
1 2 35 10.66 6.49
-1 2 -35 16.26 4.42
1 2 -35 19.83 5.78
-1 2 -35 23.69 6.32
-1 2 35 14.71 4.51
1 2 35 19.14 4.85
-1 2 35 8.24 6.99
1 -2 -36 35.91 6.82
1 2 -36 28.6 5.38
-1 -2 -36 28.89 6.56
-1 2 -36 33.36 5.74
1 2 -36 10.19 5.53
-1 2 -36 22.04 6.19
-1 2 36 23.03 5.24
1 2 36 25.27 5.32
-1 2 36 18.52 7.7
1 -2 -37 72.55 10.14
1 2 -37 49.04 7.16
-1 2 -37 52.68 7.42
-1 -2 -37 43.82 8.4
1 2 -37 40.62 8.56
-1 2 -37 55.89 9.17
-1 2 37 45.44 7.47
1 2 37 66.03 8.45
-1 2 37 37.82 10.69
1 -2 -38 4.29 4.78
1 2 -38 7.98 3.56
-1 2 -38 3.48 3.4
-1 -2 -38 8.95 4.78
1 2 -38 -1.19 4.37
-1 2 -38 6.09 4.97
1 2 38 -0.81 3.87
-1 2 38 1.75 6.41
-1 2 38 1.53 3.91
-1 2 -39 29.96 6.51
1 -2 -39 54.9 8.55
1 2 -39 40.62 6.38
-1 2 -39 43.8 6.7
-1 -2 -39 35.44 7.62
1 2 -39 30.43 7.6
-1 2 -39 26.17 7.43
-1 2 39 35.22 6.46
1 2 39 42.14 6.99
-1 2 39 40.95 10.73
-1 2 -40 6.27 4.47
1 -2 -40 3.37 4.82
-1 -2 -40 8.17 5.01
1 2 40 15.22 4.79
-1 2 40 8.91 4.24
2 2 0 53.98 5.65
2 2 0 30.48 4.47
-2 -2 0 45.04 7.11
2 -2 0 32.7 6.39
2 -2 0 30.28 7.12
-2 -2 0 43.45 5.56
2 2 0 37.83 5.24
2 2 0 30.68 4.47
-2 2 0 36.61 4.9
-2 -2 0 46.88 5.36
2 -2 0 58.68 5.63
-2 2 0 45.7 4.91
-2 2 0 52.18 5.07
2 2 0 45.09 4.27
2 2 -1 418.22 29.69
2 2 1 377.47 29.59
2 2 1 402.67 29.13
2 2 -1 408.91 28.94
-2 -2 1 321.27 30.98
-2 -2 -1 306.06 30.8
-2 2 -1 379.51 30.67
-2 -2 -1 340.73 29.2
2 -2 -1 386.1 31.65
2 -2 1 392.89 31.62
2 -2 -1 287.62 31.66
2 -2 1 236.76 30.95
2 2 -1 390.23 29.74
-2 -2 -1 411.46 30.05
-2 2 -1 372.37 28.95
-2 2 1 378.38 29.41
2 2 1 376.25 28.72
-2 -2 1 337.23 29.16
2 -2 1 373.74 29.15
2 -2 -1 374.44 29.17
2 2 -1 375.45 28.8
-2 2 1 388.33 29.05
-2 2 -1 371.13 29.08
-2 2 1 402.91 28.89
-2 2 -1 387.61 28.99
2 2 -1 380.67 28.44
2 2 1 375.84 28.31
2 2 2 130.39 11.1
2 2 2 99.21 10.11
2 2 -2 134.43 10.15
-2 -2 2 91.99 11.9
-2 -2 -2 106.47 12.28
-2 2 -2 105.01 11.48
2 -2 -2 121.33 12.63
2 -2 -2 104.87 13.37
2 -2 2 75.18 12.45
2 2 -2 124.93 11
-2 -2 -2 104.97 10.93
2 -2 -2 132.19 9.81
-2 2 -2 118.57 10.08
-2 2 2 104.62 10.63
-2 -2 -2 100.5 10.36
-2 -2 2 121.03 10.64
2 -2 2 114 10.33
2 -2 -2 126.37 10.56
-2 2 2 131.22 10.38
-2 2 -2 118.88 10.45
2 2 -2 118.6 10.1
-2 2 2 117.03 9.97
-2 2 -2 111.82 10.22
2 2 -2 121.94 9.78
2 2 2 110.01 9.48
2 2 -2 135.2 10.91
2 2 -3 9.54 2.83
2 2 3 10.91 3.02
2 2 3 3.05 2.45
2 2 -3 8.27 2.11
-2 -2 3 5.58 2.38
-2 -2 3 8.94 3.81
-2 -2 -3 9.84 4.17
-2 2 -3 9.6 3.23
2 2 -3 8.4 2.08
2 -2 -3 10.17 3.89
2 -2 -3 10.81 4.84
2 -2 3 6.53 4.58
2 2 -3 8.62 2.75
2 -2 -3 6.32 2.04
-2 2 3 5.29 3
2 2 -3 11.17 2.53
-2 -2 -3 9.66 2.68
2 -2 3 12.5 2.69
2 -2 -3 9.67 2.5
-2 2 3 8.43 2.31
-2 2 -3 9.95 2.57
-2 2 3 10.64 2.15
-2 -2 -3 6.16 2.99
-2 2 -3 10.29 2.44
2 2 -4 3.11 2.33
2 2 4 0.49 2.13
2 2 4 -0.4 2.41
2 2 -4 4.58 1.6
-2 -2 4 0.81 3.31
-2 -2 -4 3.28 3.51
2 2 -4 0.26 1.5
-2 2 -4 4.46 2.41
2 -2 -4 3.44 3.25
2 2 -4 3.34 2.06
2 -2 -4 6.53 4.22
2 -2 4 -3.26 4.22
2 -2 -4 0.8 1.86
-2 -2 -4 4.76 2.83
2 2 -4 -0.43 2.53
-2 -2 4 2.91 1.75
-2 2 4 2.58 2.69
-2 -2 -4 6.05 2.49
-2 -2 4 3.98 2.33
2 -2 4 2.52 2.03
2 -2 -4 2.86 1.78
-2 2 4 2.43 1.76
-2 2 -4 0.76 1.85
-2 2 4 4.66 1.64
-2 2 -4 1.56 1.81
2 2 5 22.27 4.02
2 2 5 16.54 3.46
-2 -2 5 17.04 4.48
-2 -2 -5 13.16 4.41
2 2 -5 20.57 2.82
-2 2 -5 16.63 3.96
2 -2 -5 27.92 5.32
2 2 -5 20.5 3.38
2 -2 -5 18.5 5.47
2 -2 5 15.22 5.46
2 -2 -5 15.68 2.98
-2 -2 -5 16.44 4.12
2 2 5 17.25 3.38
2 2 -5 12.97 3.22
-2 -2 5 18.22 2.89
-2 2 -5 15.37 3.19
2 2 -5 14.51 2.38
-2 2 -5 17.01 2.79
2 -2 -5 16.46 3.27
-2 2 5 19.67 2.9
-2 2 5 16.63 3.96
-2 -2 5 22.68 3.58
2 -2 5 23.75 3.38
-2 -2 -5 17.78 3.29
-2 2 5 20.69 3.01
-2 2 -5 23.72 3.44
-2 2 5 21.71 2.82
-2 2 -5 27.42 3.72
2 2 6 21.59 3.69
2 2 6 12.46 3.35
-2 -2 6 10.54 3.92
-2 -2 -6 10.7 4.17
2 2 -6 19.11 2.75
2 -2 -6 15.94 4.25
-2 2 -6 15.31 3.85
2 -2 -6 14.13 5.24
2 -2 6 13.03 5.06
2 2 6 19.15 3.47
2 2 -6 18.42 3.44
-2 -2 -6 13.53 3.69
-2 -2 6 15.74 2.65
-2 2 -6 12.18 3.04
2 2 -6 14.8 2.37
-2 2 -6 17.77 2.9
-2 2 6 16.5 2.67
-2 2 6 15.37 3.96
-2 -2 -6 16.19 3.14
-2 -2 6 16.52 3.22
2 -2 6 16.89 3.18
2 -2 -6 18.95 3.03
2 2 -6 20.94 3.49
-2 2 6 14.07 2.66
-2 2 -6 10.43 2.68
-2 2 -6 18.68 3.25
2 2 7 14.67 3.17
2 2 7 14.27 3.52
-2 -2 7 10.53 4.31
-2 -2 -7 13.19 4.63
2 2 -7 13.57 2.56
2 -2 -7 27.84 5.45
-2 2 -7 12.12 3.59
2 -2 -7 11.94 4.74
2 -2 7 14.1 5.38
-2 -2 -7 11.66 3.69
-2 -2 7 13.34 2.69
-2 2 -7 12.82 3.16
2 2 -7 16.99 3.48
2 2 -7 10.76 2.29
-2 2 -7 16.29 2.94
-2 2 7 14.54 2.6
-2 2 7 13.05 3.88
-2 -2 7 11.79 2.82
2 -2 7 11.48 2.79
2 -2 -7 13.36 2.99
2 2 -7 17.76 3.38
-2 -2 -7 15 2.99
-2 2 7 12.26 2.56
-2 2 -7 18.15 3.23
-2 2 -7 12.93 3.04
-2 -2 8 176.47 14.67
-2 2 -8 191.41 15.5
2 2 8 195.82 16.2
2 2 8 180.94 15.72
-2 -2 8 157.47 16.81
-2 -2 -8 149.42 16.63
2 -2 -8 186.23 17.63
-2 2 -8 174.31 16.25
-2 -2 -8 171.57 17.39
2 -2 -8 146.39 17.6
2 -2 8 109.17 16.77
-2 -2 -8 163.3 15.93
2 2 -8 173.48 14.57
-2 2 -8 165.6 14.94
-2 2 8 204.01 14.75
2 -2 8 175.05 14.95
2 -2 -8 179.95 15
-2 -2 -8 179.01 15.16
-2 -2 8 175.44 15.08
2 2 -8 192.62 15.57
-2 2 8 191.44 14.65
-2 2 -8 181.05 15.27
-2 2 8 192.6 16.63
-2 2 -8 200.89 15.82
2 2 -8 196.54 14.79
-2 2 -9 108.32 10.49
2 2 9 127.79 11.43
2 2 9 124.86 11.16
2 -2 9 112.81 10.13
-2 -2 9 99.45 11.9
-2 -2 -9 101.66 12.02
2 -2 -9 115.25 12.59
-2 2 -9 110.78 11.44
-2 -2 -9 123.91 12.86
2 -2 -9 66.03 11.72
2 -2 9 77.36 12.38
-2 -2 -9 112.36 11.29
2 2 -9 116.6 9.97
-2 2 -9 127.21 10.5
-2 2 9 128.29 12.14
2 -2 -9 114.8 9.98
-2 2 9 117.99 9.72
2 -2 -9 104.42 10.02
-2 -2 -9 113.45 10.33
-2 -2 9 108.63 10.24
2 2 -9 118.23 10.69
-2 2 -9 123.08 10.61
-2 2 9 113.28 9.97
-2 2 -9 105.9 10.67
2 2 -9 116.6 9.92
-2 2 10 16.94 4.1
2 2 10 11.27 3.14
2 2 10 3.69 2.73
-2 -2 10 11.4 4.35
-2 -2 -10 10.01 3.99
2 2 -10 12.59 2.56
2 -2 -10 10.46 3.95
-2 2 -10 12.19 3.86
-2 -2 -10 14.64 4.67
2 -2 -10 6.53 4.18
2 -2 10 11.96 4.99
2 -2 -10 10.19 2.53
-2 2 -10 8.24 2.86
2 2 -10 13.22 2.68
-2 2 -10 11.64 2.87
-2 2 10 11.88 2.23
-2 2 10 5.11 3.2
-2 -2 -10 7.65 2.74
-2 -2 10 10.86 2.69
2 -2 10 10.06 2.83
2 -2 -10 11.14 2.96
2 2 -10 13.28 3.27
-2 2 -10 9.94 2.71
2 2 -10 10.79 3.16
-2 2 10 11.76 2.59
-2 2 -10 7.62 2.84
-2 2 -11 144.64 13.43
2 2 11 167.63 14.71
-2 2 -11 158.15 13.57
-2 -2 11 126.98 14.71
-2 -2 -11 140.1 15.14
2 2 -11 146.88 13.03
2 -2 -11 144.49 15.54
-2 -2 -11 156.57 15.8
2 -2 -11 106.45 15.16
2 -2 11 99.38 15.08
2 2 11 151 12.68
-2 2 11 122.94 14.47
2 -2 -11 169.68 13.18
-2 2 11 166.12 12.59
2 -2 11 147.3 12.99
2 -2 -11 151.66 13.06
-2 -2 -11 153.53 13.23
-2 -2 11 142.52 13.05
2 2 -11 162.17 13.78
-2 2 -11 157.34 13.59
-2 2 11 168.52 13.02
2 2 -11 151.22 13.81
2 2 -11 166.31 13.06
-2 2 -11 172 14.33
-2 2 11 174.36 14.58
2 2 12 272.43 23.35
-2 -2 12 235.65 23.63
-2 -2 -12 235.22 23.71
2 -2 -12 272.7 24.98
-2 -2 -12 245.7 24.34
-2 2 12 296.89 21.48
2 -2 -12 188.39 24
2 -2 12 189.39 23.91
2 2 12 263.88 21.54
2 2 -12 263.24 21.94
-2 2 -12 276.62 22.45
2 -2 -12 280.62 21.99
-2 2 12 268.59 24.05
2 -2 12 269.22 21.86
2 -2 -12 291.39 22
-2 -2 -12 265.74 22
-2 -2 12 263.48 21.91
2 2 -12 297.62 22.71
-2 2 -12 287.83 22.59
-2 2 12 293.76 21.74
2 2 -12 281.68 22.85
2 2 -12 308.12 22.04
-2 2 -12 286.43 23.14
-2 2 -12 280.77 22.51
-2 2 12 309.9 23.52
-2 2 13 520.86 38.5
2 2 13 523.74 38.88
-2 -2 13 335.9 37.99
-2 -2 -13 439.09 39.05
-2 -2 -13 486.63 39.96
-2 2 13 497.89 36.5
2 -2 -13 334.79 38.98
2 -2 13 342.76 39.17
2 2 13 494.47 36.73
2 2 -13 452.3 37.06
-2 2 -13 476.66 37.6
2 -2 -13 503.87 37.15
-2 2 13 482.98 39.39
2 -2 13 487.39 36.9
2 -2 -13 473.57 36.81
-2 -2 -13 443.3 36.87
-2 -2 13 452.4 36.84
2 2 -13 523.33 37.8
-2 2 -13 521.19 37.74
-2 2 13 533.41 36.73
2 2 -13 501.42 37.96
2 2 -13 521.06 37.04
-2 2 -13 488.65 38.28
-2 2 -13 552 37.81
-2 2 14 653.24 42.93
2 2 14 575.58 42.94
-2 -2 14 416.34 42.27
-2 -2 -14 437 42.49
-2 -2 -14 534.96 43.88
2 -2 -14 572.01 40.9
-2 2 14 576.6 40.53
2 -2 -14 359.36 42.81
2 -2 14 398.45 43.13
2 2 14 565.87 40.77
-2 2 -14 501.87 41.47
2 -2 -14 546.04 41.12
-2 2 14 526.47 43.49
2 -2 14 538.67 40.79
-2 -2 -14 544.31 40.97
-2 -2 14 494.91 40.7
2 2 -14 505.87 41.08
2 2 -14 521.85 41.46
-2 2 -14 595.82 41.84
2 2 -14 552.33 40.88
-2 2 14 565.31 40.48
2 2 -14 571.3 42.06
-2 2 -14 523.17 42.2
-2 2 -14 565.39 41.55
-2 2 15 10.48 3.57
2 2 15 3.76 3.17
2 -2 -15 7.19 2.6
2 2 -15 4.37 2.23
-2 -2 15 3.27 3.95
-2 -2 -15 4.21 4.06
-2 -2 -15 5.86 4.01
-2 2 -15 10.47 3.17
2 -2 -15 5.42 4.44
2 -2 15 -2.16 4.21
-2 2 15 11.43 2.29
2 2 -15 7.33 2.72
-2 2 -15 3.39 2.55
2 2 15 10.43 2.33
-2 2 15 7.29 4.16
-2 -2 -15 3.15 2.37
-2 -2 15 6.79 2.66
2 -2 15 7.23 2.57
2 -2 -15 4.33 2.4
2 2 -15 4.61 2.92
-2 2 -15 4.19 2.47
2 2 -15 12.38 3.62
-2 2 15 11.8 2.39
-2 2 -15 4.07 3.28
-2 2 16 8.69 3.52
2 2 16 18.99 4.51
2 -2 -16 9.01 2.92
2 2 -16 16.34 3.21
-2 -2 16 14.72 4.3
-2 -2 -16 11.75 4.35
-2 -2 -16 16.83 4.77
-2 2 -16 18.26 3.62
2 -2 -16 12.92 5.35
2 -2 16 12.95 5.09
-2 2 16 15.72 3.01
2 2 -16 19.54 3.69
-2 2 -16 8.88 3.24
2 2 16 15.56 3.08
-2 2 16 8.52 4.8
-2 -2 -16 10.63 2.92
-2 -2 16 12.79 2.97
2 -2 16 18.07 3.33
2 -2 -16 18.23 3.25
2 2 -16 17.63 3.75
-2 2 -16 15.58 3.53
2 2 -16 15.82 3.93
-2 2 16 16.32 2.81
-2 2 -16 9.91 3.82
-2 2 17 41.78 6.41
2 2 17 41.03 7.1
-2 -2 17 40.77 6.88
-2 -2 -17 61.51 8.48
-2 2 17 42.68 4.95
2 -2 17 24.66 6.81
2 2 17 45.54 5.21
2 -2 -17 48.36 5.88
-2 -2 -17 35.39 5.87
2 2 -17 40.51 5.73
-2 2 -17 47.11 6.23
-2 2 17 35.35 7.46
-2 -2 -17 44.27 5.21
2 -2 -17 39.85 5.03
2 2 -17 54.15 6.25
-2 2 -17 39.16 5.77
2 2 -17 48.7 5.5
2 2 -17 50.46 6.72
-2 2 17 42.57 4.75
-2 2 -17 49.43 5.97
-2 2 -17 45.73 6.6
-2 2 18 5.63 3.21
2 -2 -18 6.82 2.93
2 2 18 17.2 4.52
-2 2 18 13.23 5.25
2 2 -18 10.89 2.89
-2 -2 -18 12.28 4.14
-2 2 -18 10.58 3.31
-2 -2 -18 12.83 3.73
-2 2 18 11.88 2.7
2 2 -18 8.63 3.36
-2 2 -18 5.83 3.03
2 2 18 6.63 2.47
2 2 -18 10.11 3.46
-2 2 -18 11.28 3.22
2 2 -18 13.78 3.76
-2 2 18 15.08 2.51
-2 2 -18 7.62 3.33
2 -2 -19 21.45 4.25
-2 2 19 26.05 5.06
2 2 19 19.16 5.27
2 2 -19 28.4 4.17
-2 -2 -19 11.47 4.66
-2 2 -19 27.49 4.53
-2 -2 -19 27.81 5.11
-2 2 19 22.96 3.68
2 2 -19 25.29 4.6
-2 2 -19 11.51 3.84
2 2 19 25.64 3.92
-2 2 19 12.65 5.48
2 2 -19 24.78 4.5
-2 2 -19 20.76 4.34
-2 2 19 30.77 3.47
2 2 -19 23.21 4.91
-2 2 -19 25.24 5.23
2 -2 -20 3.46 2.69
-2 2 20 5.97 3.52
2 2 20 4.68 3.74
2 2 -20 4.15 2.61
-2 -2 -20 4.23 3.66
-2 2 -20 4.39 2.86
-2 -2 -20 3.58 3.07
-2 2 20 5.3 2.56
2 2 -20 6.38 3.12
-2 2 -20 2.12 3.03
2 2 20 5.46 2.7
-2 2 20 2.18 4.24
2 2 -20 5.47 3.17
-2 2 -20 7.09 3.08
2 2 -20 3.55 2.91
-2 2 -20 1.63 3
-2 2 21 263.27 22.52
2 2 21 253.89 23.58
-2 -2 -21 243.91 23.71
-2 2 21 271.08 20.86
2 2 21 264.4 21.06
2 -2 -21 249.13 21.58
2 2 -21 250.96 21.87
-2 2 -21 229.16 21.91
-2 2 21 244.74 24.02
-2 -2 -21 253.68 22.22
2 2 -21 238.85 21.25
-2 2 -21 240.04 21.48
2 2 -21 264.25 21.04
2 2 -21 270.87 22.39
-2 2 -21 240.25 22.55
-2 2 -21 257.4 21.38
2 -2 -22 13.21 3.88
-2 2 22 15.91 4.47
2 2 22 12.64 4.7
2 2 -22 10.17 3.32
-2 2 -22 14.3 3.63
-2 -2 -22 9.85 4.67
-2 -2 -22 16.62 4.52
2 2 -22 10.4 3.83
-2 2 22 17.36 3.42
-2 2 -22 9.16 4.3
2 2 22 19.62 3.76
-2 2 22 19.8 6.3
2 2 -22 18.09 3.96
-2 2 -22 8.07 3.42
2 2 -22 15.9 4.37
-2 2 -22 15.57 4.4
-2 2 23 192.59 17.23
2 2 23 163.08 17.93
-2 -2 -23 155.04 17.7
-2 2 23 182.01 15.31
2 2 23 180.9 15.55
2 -2 -23 176.33 16.19
2 2 -23 161.35 16.27
-2 2 -23 159.35 16.49
-2 2 23 167.1 18.56
-2 -2 -23 179.68 16.82
2 2 -23 179.23 15.9
-2 2 -23 169.96 16.06
2 2 -23 193.28 15.62
2 2 -23 176.8 16.85
-2 2 -23 176.94 15.84
2 -2 -24 -0.68 2.44
-2 2 24 1.68 2.99
2 2 24 -1.15 3.82
2 2 -24 2.57 2.75
-2 2 -24 0.58 2.7
-2 -2 -24 4 3.34
-2 2 -24 0.82 3.51
2 2 -24 -2.28 3.24
-2 2 24 4.33 2.1
2 2 24 -3.72 3.35
-2 2 24 -2.48 5.05
2 2 -24 1.76 2.81
-2 2 -24 2.58 2.51
2 2 -24 4.12 3.36
2 -2 -25 39.11 6.21
-2 2 25 38.39 6.82
2 2 25 39.98 7.96
2 2 -25 41.81 5.69
-2 2 -25 40.7 5.99
-2 -2 -25 51.09 7.26
2 2 -25 44.48 6.86
-2 2 25 45.54 5.78
-2 2 -25 40.87 7.02
2 2 25 49.76 6.18
-2 2 25 39.61 8.4
2 2 -25 36.5 5.79
-2 2 -25 30.25 5.59
2 2 -25 33.69 6.5
2 -2 -26 15.5 4.16
-2 2 26 22.71 5.38
2 2 26 11.12 5.79
2 2 -26 13.44 3.58
-2 2 -26 16.97 4.11
-2 -2 -26 20.34 4.8
2 2 -26 14 4.5
-2 2 26 10.36 3.61
-2 2 -26 6.17 4.03
2 2 26 10.33 3.73
-2 2 26 14.47 6.48
2 2 -26 11.59 3.8
2 2 -26 12.32 4.46
2 -2 -27 35.19 6.12
-2 2 27 35.06 7.1
2 2 27 36.15 8.19
2 2 -27 40.33 5.6
-2 2 -27 41.93 5.99
-2 -2 -27 34.95 6.85
2 2 -27 33.25 6.35
-2 2 27 38.67 5.47
-2 2 -27 24.6 6.32
2 2 27 44.03 5.96
-2 2 27 36.54 8.46
2 2 -27 26.69 5.21
2 2 -27 28.47 6.15
2 -2 -28 10.3 4.09
-2 2 28 12.54 4.74
2 2 -28 7.84 3.36
2 2 28 13.21 5.79
-2 2 -28 10.08 3.97
-2 -2 -28 13.47 4.63
2 2 -28 11.56 4.65
-2 2 28 11.13 3.37
-2 2 -28 6.59 4.14
2 2 28 10.47 3.64
-2 2 28 -5.56 6.34
2 2 -28 0.94 3.39
2 -2 -29 26.22 5.25
2 2 -29 12.99 3.69
2 2 29 5.5 5.14
-2 2 -29 16.65 4.3
-2 -2 -29 6.46 4.14
2 2 -29 11.02 4.51
-2 2 29 27.1 4.49
-2 2 -29 0.97 5.62
2 2 29 15.94 4.09
-2 2 29 11.43 6.18
2 2 -29 23.27 5.61
2 -2 -30 1.69 3.37
2 2 -30 5.79 2.96
2 2 30 1.41 5.31
-2 2 -30 3.23 3.35
-2 -2 -30 3.79 3.67
2 2 -30 -3.79 4.77
-2 2 -30 -7 5.63
-2 2 30 -3.57 3.55
2 2 30 3.29 3.37
-2 2 30 2.93 5.54
2 2 -30 4 3.87
2 2 31 68.19 11.59
-2 -2 -31 76.83 10.02
-2 2 31 80.6 8.76
2 2 31 69.36 8.64
2 -2 -31 79.5 9.93
2 2 -31 78.6 10.25
-2 2 -31 65.92 9.96
-2 2 31 55.67 11.4
2 2 -31 78.36 8.64
-2 2 -31 73.77 8.71
2 2 -31 62.21 9.76
2 -2 -32 35.11 6.81
2 2 32 35.54 8.63
-2 2 -32 45.24 6.49
-2 -2 -32 42.88 7.57
2 2 -32 45.53 7.87
-2 2 -32 34.98 7.64
-2 2 32 37.52 6.21
2 2 32 34.34 6.11
-2 2 32 24.67 8.62
2 2 -32 52.6 6.45
2 2 -32 50.25 8.21
2 2 33 103.21 15.76
-2 2 33 137.65 13.07
2 2 33 130.06 13.24
2 -2 -33 113.11 13.68
2 2 -33 121.87 14.39
-2 2 -33 118.75 14.4
-2 -2 -33 123.67 14.35
-2 2 33 103.49 16.52
2 2 -33 131.55 12.6
-2 2 -33 152.2 13.4
2 2 -33 128.32 14.74
2 -2 -34 0.95 3.5
2 2 -34 4.32 3.15
2 2 34 -3.1 5.33
-2 2 -34 -0.69 3.23
-2 -2 -34 2.1 3.61
2 2 -34 1.07 4.16
-2 2 -34 1.12 4.34
-2 2 34 -1.35 3.24
2 2 34 -4.51 4.07
-2 2 34 6.42 6.05
2 2 -34 -4.35 4.11
2 -2 -35 74.46 10.03
2 2 35 58.51 12.1
-2 -2 -35 74.06 10.56
-2 2 35 87.52 9.47
2 2 -35 67.28 10.19
-2 2 -35 61.94 10.08
2 2 35 74.2 9.44
-2 2 35 60.68 12.12
2 2 -35 81.87 8.88
-2 2 -35 71.83 8.91
2 2 -35 68.81 10.38
-2 2 -36 5.13 3.88
2 2 -36 1.91 2.72
-2 2 -36 3.51 3.54
-2 -2 -36 9.88 4.89
2 2 -36 5.66 4.83
-2 2 -36 1.18 4.68
-2 2 36 -0.71 3.3
2 2 36 0.79 3.81
-2 2 36 1.68 6.67
-2 2 -37 14.79 4.67
2 2 -37 1.3 3.2
-2 2 -37 8.45 3.73
-2 -2 -37 4.49 4.6
2 2 -37 8.15 5.09
-2 2 -37 2.41 5.27
-2 2 37 7.37 4.07
2 2 37 8.96 4.72
-2 2 37 5.13 6.29
-2 2 -38 -4.4 4.14
2 2 -38 1.32 3
-2 2 -38 1.41 3.2
-2 -2 -38 6.88 4.67
2 2 -38 -1.19 4.24
-2 2 -38 2.47 4.25
-2 2 38 3.02 3.98
2 2 38 -4.18 4.52
-2 2 38 -1.73 6.52
-2 2 -39 9.85 4.39
2 2 -39 15.32 4.14
-2 2 -39 9.31 3.96
-2 -2 -39 3.51 4.32
2 2 39 3.42 3.83
2 2 -39 7.32 5.11
-2 2 -39 2.52 5.04
-2 2 39 7.74 4.27
-2 2 39 3.52 6.85
-2 2 40 -1.6 3.62
2 2 40 6.12 3.89
3 2 0 2229.76 154.36
3 2 0 2012.53 153.74
-3 -2 0 2314.86 156.7
3 -2 0 1812.52 155.75
3 -2 0 1891.85 157.44
-3 -2 0 2460.34 155.35
-3 2 0 1847.36 153.75
3 -2 0 1886.42 154.07
3 2 0 2127.11 153.86
-3 -2 0 2247.41 154.36
3 -2 0 2323.92 154.1
3 -2 0 1975.16 153.38
-3 2 0 2213.17 153.77
-3 2 0 2058.38 153.58
3 2 -1 684.79 51.15
3 2 1 797.25 51.74
-3 -2 1 717.04 50.93
3 2 1 591.67 50.64
3 2 -1 645.47 50.65
-3 -2 1 772.86 53.77
-3 -2 -1 796.47 53.93
3 -2 -1 631.84 53.02
3 -2 1 558.93 52.48
3 -2 -1 632.11 54.47
3 -2 1 632.04 54.61
-3 -2 -1 742.84 52.17
3 2 1 696.74 50.86
-3 2 -1 631.96 50.68
-3 2 1 536.57 50.67
3 2 -1 687.99 50.88
-3 -2 1 719.74 51.32
3 -2 1 801.65 51.25
3 -2 -1 795.43 51.21
3 -2 1 637.32 50.42
-3 2 1 667.75 50.56
-3 2 -1 711.18 50.84
-3 2 1 612.01 50.34
-3 2 -1 713.38 50.88
3 2 -1 596.05 49.75
-3 -2 -1 750.6 51.43
3 2 -2 182.79 12.8
3 2 2 134.24 12.43
-3 -2 2 148.61 12.01
3 2 2 101.91 11.73
3 2 -2 128.78 11.67
-3 -2 2 167.31 14.68
-3 -2 -2 147.77 14.89
3 -2 -2 115.7 13.61
3 -2 2 100.72 13.27
3 -2 -2 123.23 15.33
3 -2 2 105.13 14.72
-3 -2 -2 144.93 13.35
-3 2 -2 116.35 11.63
-3 2 2 104.03 11.96
-3 -2 -2 162.11 12.68
-3 -2 2 187.54 12.96
3 -2 2 162.05 12.5
3 -2 -2 176.35 12.41
3 2 -2 132.16 11.95
3 -2 2 135.38 11.75
-3 2 2 151.94 11.78
-3 2 -2 170.29 12.33
3 2 -2 116.94 10.99
-3 2 2 138.2 11.57
-3 2 -2 126.14 12.04
3 2 -3 1029.72 64.84
3 2 3 889.17 65.11
-3 -2 3 890.96 64.25
3 2 3 746.25 64.32
3 2 -3 836.19 64.02
-3 -2 3 1071.08 67.75
-3 -2 -3 932.39 67.1
3 -2 -3 762.77 66.47
3 -2 3 755.72 66.05
3 -2 -3 721.07 67.64
3 -2 3 719.71 67.52
-3 -2 -3 944.88 65.89
-3 2 -3 770.02 63.79
-3 2 3 755.9 64.72
-3 -2 -3 864.33 64.71
-3 -2 3 981.74 65
3 -2 3 968.59 64.61
3 -2 -3 1001.34 64.75
3 -2 3 863.8 64.16
-3 2 3 892.83 64.08
-3 2 -3 824.99 64.3
3 2 -3 925.67 64.6
3 2 -3 784.15 63.44
-3 2 -3 793.62 64.32
3 2 -4 540.91 38.84
3 2 4 560.06 39.77
3 2 4 521.13 39.18
3 2 -4 456.24 38.23
-3 -2 4 598.35 41.78
-3 -2 -4 591.73 41.7
-3 2 -4 490.95 39.92
3 -2 -4 467.45 40.96
3 -2 -4 422.46 41.74
3 -2 4 446.04 42.15
-3 -2 -4 636.49 40.81
-3 2 4 393.48 38.92
-3 2 4 489.36 38.66
-3 -2 -4 596.05 39.46
-3 -2 4 539.41 39.15
3 -2 4 593.68 39.09
3 -2 -4 621.67 39.23
-3 2 4 508.2 38.31
-3 2 -4 499.22 38.76
3 2 -4 443.12 37.81
-3 2 -4 464.74 38.83
3 2 -4 437.73 38.59
3 2 -5 269.18 19.48
-3 -2 5 181.54 18.42
3 2 5 315.37 20.9
3 2 -5 221.18 19.29
3 2 5 232.14 19.66
3 2 -5 205.64 18.66
-3 -2 5 247.79 21.64
-3 -2 -5 311.7 22.58
-3 2 -5 245.9 20.6
3 -2 -5 193.35 21.07
-3 2 5 231.94 19.11
3 -2 -5 191.87 22.16
3 -2 5 218.88 22.58
-3 -2 -5 345.19 21.92
-3 2 -5 192.94 19.03
-3 2 5 188.71 19.7
-3 -2 -5 290.45 20.11
-3 -2 5 264.18 19.77
3 -2 -5 270.3 19.48
-3 2 5 245.4 18.83
-3 2 -5 277.55 19.76
3 2 -5 219.54 18.51
3 -2 5 287.14 19.69
-3 2 -5 249.02 19.77
3 2 -6 15.79 3.04
3 2 6 12.66 3.28
3 2 6 13.49 3.56
3 2 -6 16.18 2.58
-3 -2 6 19.97 4.68
-3 -2 -6 19.31 4.77
-3 2 -6 13.99 3.71
3 -2 -6 10.73 4.05
3 -2 -6 5.64 4.28
3 -2 6 18.04 5.6
3 2 -6 15.24 3.5
-3 -2 6 10.85 2.69
-3 -2 -6 15.69 4.53
3 2 -6 12.55 2.58
-3 2 -6 13.84 3.47
-3 2 -6 12.91 2.97
-3 2 6 24.08 4.39
-3 2 6 14.59 2.81
-3 -2 -6 21.19 3.53
-3 -2 6 23.89 3.68
3 -2 6 27.13 3.52
3 -2 -6 23.59 3.64
-3 2 6 12.58 2.59
-3 2 -6 15.63 3.06
3 -2 6 8.89 2.64
-3 2 -6 17.63 3.54
3 2 -7 15.83 3.64
3 2 7 20.44 4
3 2 7 34.82 4.96
3 2 -7 19.54 3.01
-3 -2 7 31.91 5.54
-3 -2 -7 29.02 5.55
3 -2 -7 24.6 5.6
3 -2 -7 13.52 5.71
3 -2 7 31.44 6.88
-3 -2 7 18.52 3.2
-3 -2 -7 29.63 5.4
-3 2 -7 18.44 3.87
3 2 -7 20.13 3.09
-3 2 7 17.24 4.32
-3 2 7 21.56 3.35
3 -2 7 38.8 4.18
3 -2 -7 34.62 3.91
-3 -2 -7 34.44 4.35
-3 -2 7 28.03 4.05
-3 2 -7 11.68 3.32
-3 2 -7 20.46 3.65
-3 2 7 12.78 3
-3 2 -7 27.47 4.33
-3 -2 8 78.98 8.69
-3 2 -8 96.61 9.89
3 2 8 102.71 10.44
3 2 8 82.75 9.66
3 2 -8 94.65 8.92
3 2 -8 110.2 10.01
-3 -2 8 117.09 11.88
-3 -2 -8 118.69 12.31
3 -2 -8 89.26 11.44
3 -2 -8 109.93 13.28
3 -2 8 91.93 12.38
-3 -2 -8 125.57 11.34
-3 2 -8 83.99 9.35
-3 2 8 68.95 10.08
-3 2 8 102.05 9.03
-3 -2 -8 107.36 9.73
-3 -2 8 131.56 10.02
3 -2 8 139.08 9.93
3 -2 -8 110.01 9.41
3 2 -8 113.87 10.04
-3 2 -8 106.96 9.76
-3 2 8 108.31 9.42
3 2 -8 85.88 8.62
-3 2 -8 94.05 9.95
-3 2 -9 396.26 31.53
3 2 9 396.85 32.32
3 2 9 392.38 31.87
-3 -2 9 407.93 33.24
-3 -2 -9 411.48 33.59
3 -2 -9 355.1 33.32
3 -2 -9 352.76 34.22
3 -2 9 314.39 33.66
-3 -2 -9 446.82 32.92
3 2 -9 345.32 30.45
-3 2 -9 372.47 31.27
-3 2 9 375.77 32.46
-3 -2 -9 453.03 31.54
-3 -2 9 440.94 31.39
3 -2 9 464.77 31.27
3 -2 -9 447.72 31.21
3 2 -9 353.38 31.3
-3 2 -9 384.4 31.23
-3 2 9 405.4 30.63
-3 2 9 421.97 30.9
3 2 -9 373.25 30.4
-3 2 -9 394.19 31.9
3 2 10 37.4 5.42
3 2 10 47.26 6.13
-3 -2 10 26.74 6.2
-3 -2 -10 36.93 7.03
3 -2 -10 38 7.87
3 -2 10 29.35 6.86
-3 -2 -10 49.67 6.78
-3 2 -10 35.48 5.33
3 2 -10 23.18 3.98
-3 2 -10 25.27 4.62
-3 2 10 27.98 3.99
-3 2 10 23.08 5.73
-3 -2 -10 54.5 5.51
3 -2 10 50.53 5.22
3 -2 -10 52.48 5.19
-3 -2 10 26.1 4.33
-3 2 -10 47.87 5.45
3 2 -10 27.09 4.57
3 2 -10 32.55 4.2
-3 2 10 20.74 4.09
-3 2 -10 32.78 5.29
-3 2 -11 310.79 24.1
3 2 11 312.23 25.12
3 2 11 290.58 24.42
-3 -2 11 288.84 25.69
-3 -2 -11 268.55 25.34
3 -2 -11 245.31 26.35
3 -2 11 246.62 26.55
-3 -2 -11 302.47 25.04
3 2 -11 285.96 23.13
3 2 11 270.15 22.95
-3 2 -11 271.26 23.68
-3 2 11 226.55 24.46
-3 2 11 308.79 22.87
-3 -2 -11 305.19 23.62
-3 -2 11 323.05 23.65
3 -2 11 328.81 23.48
3 -2 -11 311.98 23.29
3 2 -11 265.39 23.65
-3 2 -11 307.06 23.84
3 2 -11 258.82 22.7
-3 2 11 317.35 23.09
-3 2 -11 285.93 24.28
-3 2 -12 140.61 12.52
3 2 12 136.28 13.47
3 2 12 134.91 12.99
-3 -2 12 117.09 13.34
-3 -2 -12 132.44 13.92
-3 -2 -12 135.39 14.25
-3 2 12 127.21 11.29
3 -2 12 97.68 14.2
3 -2 -12 77.56 13.52
3 2 -12 113.09 11.42
3 2 12 140.13 11.78
-3 2 -12 145.87 12.62
-3 2 12 120.09 13.58
-3 2 12 141.13 11.25
-3 -2 -12 160.95 12.42
-3 -2 12 133.17 11.82
3 -2 12 138.92 11.78
3 -2 -12 144.62 11.76
3 2 -12 118.56 12.09
-3 2 -12 132.33 12.22
3 2 -12 119.87 11.27
-3 2 12 132.52 11.45
-3 2 -12 152.52 13.29
-3 2 12 136.98 13.16
-3 2 -13 69.51 7.49
3 2 13 56.84 7.53
3 2 13 64.62 8.37
-3 -2 13 63.25 9.16
-3 -2 -13 72.11 9.22
-3 2 13 56.27 6.16
-3 -2 -13 44.11 8.26
3 -2 -13 34.74 8.37
3 -2 13 38.41 9.11
3 2 13 52.15 6.42
3 2 -13 54.36 6.47
-3 2 -13 49.8 7.05
-3 2 13 66.74 6.11
-3 2 13 36.07 7.69
-3 -2 -13 67.32 6.84
-3 -2 13 72.59 7.06
3 -2 13 89.22 7.04
3 -2 -13 74.35 6.89
3 2 -13 70.76 7.43
-3 2 -13 48.49 6.74
3 2 -13 57.71 6.31
3 2 -13 72.69 7.69
-3 2 13 66.1 6.32
-3 2 -13 54.92 7.48
-3 2 13 69.43 8
3 2 14 176.32 15.27
3 2 14 152.15 15.37
-3 -2 14 118.04 14.86
-3 -2 -14 158.39 15.85
-3 -2 -14 154.95 16.28
-3 2 14 163.23 13.27
3 -2 14 96.76 15.62
3 -2 -14 84.85 15.05
3 2 14 164.16 13.7
3 2 -14 134.33 13.44
-3 2 -14 177.56 14.74
-3 2 14 130.88 15.31
-3 -2 -14 167.52 13.87
-3 -2 14 152.21 13.55
3 -2 14 174.74 13.65
3 -2 -14 169.33 13.53
3 2 -14 168.05 14.24
-3 2 -14 159.65 14.19
3 2 -14 151.93 13.35
3 2 -14 156.79 14.46
-3 2 14 173.18 13.27
-3 2 -14 157.46 14.96
-3 2 14 166.28 14.9
-3 2 -14 172.13 14.32
-3 2 15 27.39 5.1
3 2 15 20.31 5.01
3 2 15 30.34 5.71
3 2 -15 20.63 3.77
-3 -2 15 22.42 5.59
-3 -2 -15 17.06 5.52
-3 -2 -15 23.11 6.16
3 -2 -15 24.69 6.35
3 -2 15 20.16 6.57
-3 2 -15 34.4 5.15
-3 2 15 19.55 3.7
3 2 -15 19.8 3.81
-3 2 -15 14.52 4.16
-3 2 15 19.37 5.81
3 2 15 24.78 4.03
3 -2 15 39.05 4.56
-3 -2 -15 36.94 4.69
-3 -2 15 28.02 4.44
3 -2 -15 27.31 4.11
3 2 -15 32.14 4.7
-3 2 -15 17.77 4.2
-3 2 15 35.16 3.95
3 2 -15 35.63 5.4
-3 2 -15 32.43 5.53
-3 2 16 207.11 17.69
3 2 16 199.37 17.92
3 2 16 190.67 18.66
-3 -2 16 159.07 17.92
-3 -2 -16 165.26 18.09
-3 -2 -16 179.53 18.95
-3 2 16 188 15.93
3 -2 -16 112.8 17.87
3 -2 16 156.13 19.05
3 2 -16 168.29 16.34
-3 2 -16 177.95 17.05
-3 2 16 137.55 17.82
3 -2 16 233.11 16.46
-3 -2 -16 218.7 16.56
-3 -2 16 188.82 16.19
3 -2 -16 214.75 16.24
3 2 16 210.11 16.46
3 2 -16 189.21 16.73
-3 2 -16 203.66 17.02
3 2 -16 195.85 16.1
3 2 -16 193.42 17.25
-3 2 16 213.62 15.91
-3 2 -16 175.22 17.49
-3 2 -16 232.28 17.36
-3 2 17 110.76 11.02
3 2 17 93.64 11.07
3 2 17 95.76 11.82
-3 -2 17 79.95 11.06
-3 -2 -17 89.15 11.76
-3 2 17 109.09 9.56
3 -2 17 60.79 11.49
3 2 -17 88.07 9.84
-3 2 -17 96.83 10.67
-3 2 17 85.03 12
-3 -2 -17 111.98 9.88
3 -2 -17 119.23 9.72
3 2 -17 97.77 10.11
-3 2 -17 86.49 10.07
3 2 -17 93.59 9.46
3 2 -17 106.28 10.75
-3 2 17 123.02 9.34
3 2 17 106.19 9.87
-3 2 -17 121.22 10.77
-3 2 18 151.96 14
3 2 18 129.38 15
-3 -2 -18 133.41 15.29
-3 2 18 136.93 12.32
3 2 18 146.55 12.72
3 2 -18 137.82 13.15
-3 2 -18 128.92 13.54
-3 2 18 97.22 14.37
3 2 -18 139.77 13.08
-3 2 -18 119.78 12.87
3 2 -18 135.68 12.32
3 2 -18 150.61 13.73
-3 2 18 173.81 12.19
-3 2 -18 145.69 13.2
-3 2 19 98.08 9.76
3 2 19 65.48 9.89
-3 -2 -19 70.36 10.14
-3 2 19 86.71 7.86
3 2 19 74.32 7.93
3 2 -19 54.09 7.7
-3 2 19 63.04 10.1
-3 2 -19 61.29 8.5
3 2 -19 71.2 8.2
-3 2 -19 78.12 8.59
3 2 -19 88.41 8.13
3 2 -19 71.75 8.88
-3 2 -19 79.55 8.5
-3 2 20 39.61 6.3
3 2 20 13.95 5.52
3 2 -20 22.77 4.07
-3 -2 -20 20.66 5.79
-3 2 -20 31.1 5.05
-3 -2 -20 30.47 6.09
-3 2 20 33.9 4.46
3 2 -20 20.12 4.51
-3 2 -20 24.43 5.24
-3 2 20 14.33 6.22
3 2 20 30.84 4.36
3 2 -20 22.66 4.67
-3 2 -20 23.75 4.56
3 2 -20 15.91 4.49
-3 2 21 84.29 10.22
3 2 21 77.12 11.16
-3 2 21 93.42 8.85
-3 2 21 64.84 11.14
3 2 21 96.88 9.33
3 2 -21 72.66 9.3
-3 2 -21 75.29 9.73
-3 -2 -21 102.53 11.02
3 2 -21 90.91 9.48
-3 2 -21 75.5 9.27
3 2 -21 84.27 8.75
3 2 -21 101.86 10.35
-3 2 -21 96.53 9.56
-3 2 22 13.15 4.26
3 2 22 13.92 5.46
3 2 -22 11.76 3.22
-3 2 -22 15.55 4.08
-3 -2 -22 10.45 4.75
-3 2 22 19.92 3.91
3 2 -22 7.6 3.68
-3 2 -22 9.56 4.01
-3 2 22 17.59 6.43
3 2 22 19.4 4.11
3 2 -22 19.2 4.36
3 2 -22 18.6 4.7
-3 2 23 79.65 9.68
3 2 23 48.82 10
-3 2 23 80.67 8.17
3 2 23 77.31 8.41
-3 2 -23 71.77 9.34
3 2 -23 57.38 8.38
-3 -2 -23 74.27 9.43
-3 2 23 67.65 11.24
3 2 -23 80.04 8.41
3 2 -23 73.31 7.91
-3 2 -23 80.73 8.82
3 2 -23 58.67 8.67
-3 2 24 44.46 7.41
3 2 -24 45.8 5.97
3 2 24 39.86 8.29
-3 2 -24 47.37 6.68
-3 2 24 55.36 6.23
-3 -2 -24 53.37 8.23
3 2 -24 32.49 6.23
-3 2 -24 46.94 7.29
-3 2 24 25.09 7.39
3 2 24 52.72 6.53
3 2 -24 33.07 5.8
3 2 -24 46.42 7.17
-3 2 25 59.97 8.2
3 2 -25 45.15 6.21
3 2 25 39.57 8.64
-3 2 25 51.17 6.56
-3 -2 -25 58.29 8.7
3 2 -25 39.94 7.09
-3 2 -25 50.28 7.8
-3 2 25 37.42 8.8
3 2 25 49.31 6.85
3 2 -25 55.35 6.89
-3 2 -25 63.88 7.57
3 2 -25 43.31 7.32
-3 2 26 169.89 16.38
3 2 26 142.46 17.91
-3 2 26 183.21 14.86
3 2 26 183.45 15.38
3 2 -26 143.45 15.62
-3 2 -26 148.46 16.02
-3 2 26 129.95 17.75
-3 -2 -26 166.72 16.55
3 2 -26 154.01 14.35
3 2 -26 146.9 16
-3 2 -26 171.52 15.23
3 2 27 20.45 7.51
-3 2 27 24.53 8.25
-3 2 -27 52.98 6.89
-3 -2 -27 40.96 7.39
-3 2 27 46.53 6.3
3 2 -27 45.04 7.19
-3 2 -27 38.52 7.01
3 2 27 43.31 6.47
3 2 -27 52.28 6.36
3 2 -27 44.13 7.42
3 2 -28 17.37 3.85
3 2 28 4.22 5.65
-3 2 -28 12.25 3.79
-3 -2 -28 13.07 4.76
3 2 -28 4.39 3.49
-3 2 28 16.04 3.95
3 2 28 5.92 3.25
-3 2 28 8.32 6.09
-3 2 -28 11.62 4.62
3 2 -28 14.71 4.9
3 2 -29 1.65 2.63
3 2 29 -1.44 5.28
-3 2 -29 1.31 2.97
-3 -2 -29 0.96 3.3
3 2 29 -0.68 3.08
3 2 -29 1.83 3.46
-3 2 29 0.59 2.83
-3 2 -29 -1 4.44
-3 2 29 -5.69 6.07
3 2 -29 -1.88 3.44
3 2 -30 14.65 4.12
3 2 30 10.35 6.08
-3 2 -30 12 4.14
-3 -2 -30 20.6 5.51
3 2 -30 8.51 4.52
-3 2 30 7.3 3.68
-3 2 -30 9.24 4.55
3 2 30 8.41 3.67
-3 2 30 10.21 6
3 2 -30 18.55 5.34
3 2 -31 34.1 5.31
3 2 31 30.21 8.47
-3 2 -31 31.73 5.59
-3 -2 -31 41.2 7.49
3 2 -31 28.52 6.39
-3 2 31 30.09 5.68
-3 2 -31 17.95 5.98
3 2 31 28.91 5.78
-3 2 31 20.91 7.49
3 2 -31 50.29 7.86
-3 2 -32 65.35 8.83
3 2 32 47.93 10.89
-3 -2 -32 61.72 9.56
-3 2 32 64.33 8.05
3 2 32 79.66 9.04
3 2 -32 57.67 9.26
-3 2 -32 48.81 8.88
-3 2 32 65.75 11.77
3 2 -32 65.66 7.92
-3 2 -32 64.52 8.27
3 2 -32 53.78 9.06
-3 2 -33 51.07 7.9
-3 -2 -33 72.63 10.01
-3 2 33 59.59 7.82
3 2 -33 41.63 8.37
-3 2 -33 67.96 9.92
-3 2 33 68.84 12.23
3 2 -33 64.81 7.73
-3 2 -33 71.85 8.45
3 2 -33 46.29 8.65
3 2 33 52.08 7.96
-3 2 -34 10.09 4.3
3 2 -34 13.96 3.86
-3 2 -34 12.53 3.94
-3 -2 -34 15.07 5.39
3 2 -34 8.62 4.76
-3 2 34 11.59 4.14
-3 2 -34 5.71 4.72
-3 2 34 9.59 6.08
3 2 34 11.02 4.5
3 2 -34 7.54 4.46
-3 2 -35 17.06 5.19
3 2 -35 28.52 5.17
-3 2 -35 29.73 5.54
-3 -2 -35 25.31 6.6
3 2 -35 25.44 6.84
-3 2 35 21.71 5.23
-3 2 -35 28.1 6.67
-3 2 35 26.13 9.13
3 2 35 27.5 5.9
3 2 -35 24.14 6.28
-3 2 -36 7.82 4.41
3 2 -36 12.03 3.87
-3 2 -36 10.7 4.3
-3 -2 -36 6.75 5.32
3 2 -36 1.14 5
-3 2 36 9.34 4.47
-3 2 -36 12 5.78
-3 2 36 11.67 7.29
3 2 36 3.32 4.02
-3 2 -37 61.46 9.21
-3 2 -37 68.11 8.87
-3 -2 -37 72.29 10.69
3 2 -37 72.46 10.6
-3 2 -37 58.91 9.94
-3 2 37 67.2 8.85
-3 2 37 39.1 11.1
3 2 37 65.45 9.12
3 2 -37 74.72 8.54
-3 2 -38 8.93 4.26
3 2 -38 13.02 4.24
-3 2 -38 10.91 4.35
-3 -2 -38 14.05 5.93
-3 2 38 7.56 4.21
3 2 -38 17.94 5.97
-3 2 -38 2.51 4.66
-3 2 38 5.13 7.17
3 2 38 11.32 5.01
-3 2 -39 15.26 4.87
3 2 39 21.38 5.68
3 2 -39 24.55 6.58
-3 2 39 12.4 4.84
4 2 0 443.87 35.29
-4 -2 0 423.12 35.01
4 2 0 467.27 35.22
-4 -2 0 558.94 38.21
4 -2 0 452.59 37.18
-4 -2 0 468.45 36.24
4 2 0 454.33 35.26
-4 2 0 479.22 35.27
-4 -2 0 416.08 35.24
4 -2 0 447.59 34.99
4 -2 0 448.5 34.53
-4 2 0 443.15 34.67
-4 -2 -1 12.11 3.28
-4 -2 1 19.77 3.58
4 2 -1 17.63 3.65
4 2 1 15.11 3.48
4 2 1 9.98 3.03
4 2 -1 8.88 2.78
-4 -2 1 28.79 6.19
-4 -2 -1 26.44 5.43
4 -2 -1 8.3 4.02
4 -2 1 5.64 3.84
4 2 -1 14.23 3.41
-4 -2 -1 26.56 4.53
-4 -2 -1 15.36 3.19
-4 2 -1 16.27 3.26
-4 2 1 3.59 2.94
4 -2 -1 7.37 3.34
-4 -2 -1 21.02 3.83
-4 -2 1 20.45 3.88
4 -2 -1 12.93 2.71
4 -2 1 10.8 2.59
4 -2 1 18.06 3.42
4 -2 -1 15.71 3.26
-4 2 1 7.2 2.59
-4 2 -1 10.32 2.82
-4 2 -1 11.6 2.9
4 2 -2 345.89 27.65
4 2 2 388.07 28.4
-4 -2 -2 315.4 27.66
-4 -2 2 332.74 27.44
4 2 2 364.22 27.98
4 2 -2 377.54 27.71
-4 -2 -2 363.21 27.53
-4 -2 2 431.8 30.68
-4 -2 -2 463.65 31.01
4 -2 -2 326.81 29.56
4 -2 2 336.64 29.42
-4 -2 -2 387.64 29.16
-4 2 -2 386.98 27.61
-4 2 2 344.28 28.02
4 -2 -2 326.61 28.24
-4 2 2 340.68 27.61
4 2 -2 351.87 27.88
-4 -2 -2 339.97 27.95
-4 -2 2 315.73 27.73
4 -2 2 347.27 27.62
4 -2 -2 317.05 27.39
4 -2 2 344.5 27.2
-4 2 2 334.52 27.06
-4 2 -2 363.99 27.52
-4 2 -2 343.17 27.55
4 2 -3 209.48 17.4
4 2 3 240.69 18.52
-4 -2 3 196.46 17.18
4 2 3 232.92 17.97
4 2 -3 222.32 17.42
-4 -2 -3 206.8 17.24
-4 -2 3 249.87 20.12
-4 -2 -3 280.43 20.67
4 -2 -3 204.27 19.58
4 -2 3 207.2 19.19
-4 -2 -3 227.62 18.93
-4 2 -3 215.22 17.14
-4 2 3 204.49 17.93
4 -2 -3 190.44 18.07
-4 2 3 200.94 17.36
4 2 -3 204.07 16.73
-4 -2 -3 196.17 17.64
-4 -2 3 212.76 17.78
4 2 -3 215.77 17.76
4 -2 3 212.43 17.46
4 -2 -3 202.34 17.33
-4 2 3 215.76 16.92
-4 2 -3 199.82 17.24
-4 2 -3 182.75 17.27
4 2 -4 28.27 4.46
4 2 4 28.11 4.6
4 2 4 31.29 4.82
4 2 -4 27.99 4.08
-4 -2 4 29.43 6.13
-4 -2 -4 49.89 7
4 -2 -4 20.1 5.1
4 -2 4 31.33 5.69
-4 -2 -4 29.34 5.43
-4 2 -4 27.37 4.1
-4 2 4 27.04 4.77
-4 -2 -4 37.63 4.83
-4 -2 4 35.06 4.65
4 -2 4 34.58 4.43
4 -2 -4 17.75 4.74
4 -2 -4 25.23 4.07
-4 2 4 23.72 3.5
-4 2 -4 27.47 4.13
-4 2 4 27.44 4.03
4 -2 4 31.62 3.89
-4 2 -4 25.04 4.15
4 2 5 12.68 3.4
4 2 5 23.16 4.38
4 2 -5 16.84 3.1
4 2 -5 15.09 2.48
-4 -2 5 28.56 5.34
-4 -2 -5 20.83 4.8
4 -2 -5 9.8 4.24
4 2 -5 19.43 3.53
-4 -2 -5 18.26 4.6
-4 2 -5 16.35 3.24
-4 2 5 16.9 3.98
-4 2 5 25.17 3.45
-4 -2 -5 21.69 3.78
-4 -2 5 17.36 3.63
4 -2 5 16.49 3.24
4 -2 -5 24.04 3.68
-4 2 -5 18.51 3.38
-4 2 5 16.09 3.12
4 -2 5 14.27 2.86
-4 2 -5 16.04 3.41
4 2 6 4.22 2.6
4 2 6 11.69 3.34
4 2 -6 10.5 2.56
4 2 -6 10.88 2.14
-4 -2 6 14.65 4.5
-4 -2 -6 14.19 4.55
4 -2 -6 10.01 3.85
-4 -2 -6 8.98 3.69
4 2 -6 7.56 2.15
4 2 -6 7.28 2.86
-4 2 -6 8.8 2.97
-4 2 6 7.4 3.06
-4 2 6 7.35 2.36
-4 -2 -6 15.12 3.23
-4 -2 6 11.85 2.9
4 -2 6 7.45 2.72
4 -2 -6 11.42 2.87
-4 2 -6 6.39 2.38
-4 2 6 8.29 2.56
4 -2 6 4.52 2.16
-4 2 -6 4.47 2.49
4 2 7 43.9 5.65
4 2 7 43.97 6.21
4 2 -7 28.67 4.33
-4 -2 7 51.36 7.21
-4 -2 -7 47.66 7.18
4 -2 -7 50.32 7.57
4 2 -7 36.12 4.54
-4 -2 -7 36.07 6.16
-4 2 -7 39.37 5.23
-4 2 7 36.54 5.96
-4 2 7 34.98 4.67
4 -2 7 39.92 5.04
4 -2 -7 43.69 5.02
-4 -2 -7 36.66 5.12
-4 -2 7 35 4.97
4 2 -7 39.17 4.21
-4 2 7 51.59 5.16
-4 2 -7 34.82 4.92
4 2 -7 35.32 5.22
4 2 8 290.63 26.25
-4 2 -8 337.6 26.02
4 2 8 326.87 26.08
4 2 -8 325.24 25.75
-4 -2 8 394.6 28.2
-4 -2 -8 374.36 28.05
-4 -2 -8 299.29 26.64
4 2 -8 291.02 24.68
-4 2 -8 319.13 25.61
-4 2 8 284.78 26.27
-4 2 8 327.48 25.03
-4 -2 -8 310.87 25.46
-4 -2 8 301.1 25.31
4 -2 8 301.2 25.04
4 -2 -8 332.3 25.22
-4 2 -8 319.32 25.4
4 2 -8 299.93 24.35
-4 2 8 337.16 25.1
4 2 9 40.49 5.84
4 2 9 52.25 6.9
-4 -2 9 42.21 6.77
-4 -2 -9 51.34 7.4
4 2 -9 47.55 5.09
-4 -2 -9 34.1 6.27
-4 2 -9 47.82 5.96
-4 2 -9 30.31 5.28
-4 2 9 48.62 5.13
-4 2 9 43.79 6.75
4 -2 9 46.57 5.34
4 -2 -9 47.13 5.34
-4 -2 -9 35.38 5.24
-4 -2 9 34.07 5.12
4 2 -9 38.27 5.57
4 2 -9 37.6 4.45
-4 2 -9 40.37 5.32
-4 2 9 51.79 5.25
4 2 10 44.92 5.87
4 2 10 49.56 6.53
4 2 10 46.5 7.16
-4 -2 10 53.47 7.74
-4 -2 -10 58.98 7.95
4 2 -10 50.29 5.45
-4 -2 -10 43.27 6.97
4 2 -10 40.27 6.14
-4 2 -10 37.47 6.01
-4 2 10 58.14 5.63
-4 2 10 54.37 7.26
-4 -2 -10 49.13 5.98
4 -2 10 43.71 5.44
4 -2 -10 44.49 5.54
-4 -2 10 42.03 5.65
-4 2 -10 41.81 6.01
-4 2 -10 46.58 5.95
4 2 -10 57.12 5.24
-4 2 10 53.18 5.48
4 2 11 7.03 3.34
4 2 11 7.99 3.36
4 2 -11 7.35 2.15
-4 -2 11 5.72 3.87
-4 -2 -11 3.37 3.46
-4 -2 -11 1.56 3.34
-4 2 -11 7.21 3.47
4 2 -11 3.6 2.05
-4 2 -11 1.11 2.29
-4 2 11 3.97 3.56
-4 2 11 4.18 1.97
-4 -2 -11 3.31 2.59
-4 -2 11 6.69 2.75
4 2 -11 -0.57 2.8
4 2 -11 11.71 3.03
4 -2 11 9.34 2.75
4 -2 -11 7.47 2.85
-4 2 -11 9.51 2.81
-4 2 11 7.33 2.31
-4 2 -12 275.09 22
4 2 12 233.01 22.08
4 2 12 269 23.28
-4 -2 12 260.1 23.2
-4 -2 -12 270.45 23.55
-4 2 -12 254.38 21.92
-4 -2 -12 256.78 22.96
-4 2 12 247.32 23
-4 2 12 277.94 20.84
-4 -2 -12 265.17 21.43
-4 -2 12 227.91 21
4 -2 12 265.89 21.11
4 -2 -12 274 21.13
4 2 -12 275.37 21.76
-4 2 -12 246.53 21.51
4 2 -12 247.27 21.05
4 2 -12 259.28 20.62
-4 2 12 267.73 20.78
-4 2 -13 128.72 10.44
4 2 13 85.18 10.04
4 2 13 116.31 11.96
-4 -2 13 91.13 10.76
-4 -2 -13 110.93 11.71
-4 2 13 87.51 8.82
4 -2 13 68.26 11.38
4 2 -13 74.85 8.88
-4 2 -13 86.75 9.77
-4 2 13 92.8 8.7
-4 2 13 68.22 10.61
-4 -2 -13 100 9.47
-4 -2 13 100.69 9.37
4 -2 13 100.28 9.13
4 -2 -13 94.25 9.05
4 2 -13 107.87 9.83
-4 2 -13 94.11 9.65
4 2 -13 101.41 8.82
-4 2 13 108.25 8.93
-4 2 14 14.27 3.94
4 2 14 10.06 3.9
4 2 14 11.81 4.45
4 2 -14 13.33 2.86
-4 -2 14 7.39 3.91
-4 -2 -14 17.07 5.01
4 -2 14 11.93 5.69
-4 2 -14 10.76 3.62
-4 2 14 12 2.87
4 2 -14 10.77 3.09
-4 2 -14 11.89 3.6
-4 2 14 10.7 4.45
-4 2 14 12.94 2.74
-4 -2 -14 11.27 3.24
-4 -2 14 15.35 3.35
4 -2 14 14.69 3.22
4 2 -14 14.45 3.43
4 -2 -14 13.67 2.95
-4 2 -14 14.15 3.38
-4 2 14 19.12 3.1
-4 2 15 42.42 6.42
4 2 15 44.39 6.59
4 2 15 47.54 7.98
-4 -2 15 38.48 6.91
-4 -2 -15 47.45 7.75
-4 2 15 40.3 5.15
4 -2 -15 38.03 8.05
4 -2 15 40.39 8.12
-4 2 -15 48.05 6.31
4 2 -15 42.06 5.64
-4 2 -15 52.15 6.81
-4 2 15 52.58 5.3
-4 2 15 35.52 7.03
-4 -2 -15 44.65 5.56
-4 -2 15 40.81 5.32
4 -2 15 49.24 5.54
4 -2 -15 43.57 5.36
4 2 -15 49.35 6.15
4 2 -15 42.08 5.07
-4 2 -15 36.78 5.67
-4 2 15 45.42 5.02
4 2 -15 38.26 5.94
4 2 16 47.11 7.1
4 2 16 35.96 7.3
-4 -2 16 32.28 6.47
-4 -2 -16 47.38 7.3
-4 2 16 47.79 5.56
-4 -2 -16 54.36 8.08
4 -2 -16 27.2 6.97
4 -2 16 35.37 7.56
-4 2 -16 44.88 6.22
4 2 16 49.22 5.9
4 2 -16 35.11 5.43
-4 2 -16 42.13 6.37
-4 2 16 28.94 6.78
4 -2 -16 55.55 5.68
-4 -2 -16 41.37 5.58
4 2 -16 46.44 5.27
4 2 -16 45.53 6.09
-4 2 -16 41.25 5.92
-4 2 16 45.65 5.03
4 2 -16 39.63 6.22
-4 2 16 62.92 7.28
-4 2 17 44.2 6.04
4 2 17 37.35 6.36
4 2 -17 24.14 4.08
4 2 17 31.66 6.88
-4 -2 17 28.05 6.11
4 -2 17 18.76 6.04
-4 2 -17 32.43 5.4
-4 2 17 27.34 4.41
4 2 -17 27.81 4.66
-4 2 -17 33.1 5.66
-4 2 17 43.48 7.75
4 2 17 32.78 4.69
-4 -2 -17 33.2 4.78
4 -2 -17 31.7 4.54
4 2 -17 24.93 4.82
-4 2 17 33.95 4.21
4 2 -17 37.87 5.97
-4 2 18 115.93 11.49
4 2 18 97.13 11.44
4 2 18 84.67 12.31
-4 2 18 118.66 10.18
4 2 18 106.54 10.36
4 2 -18 90.89 10.33
-4 2 -18 89.34 10.97
-4 2 18 79.22 12.19
4 2 -18 91.6 10.24
4 2 -18 114.88 9.97
4 2 -18 114.26 11.33
-4 2 18 120.94 9.69
-4 2 -18 117.74 10.97
-4 2 19 6.47 3.63
4 2 19 5.97 3.32
4 2 -19 2.89 2.19
4 2 19 3.35 3.59
-4 2 -19 0.61 3.42
-4 2 19 3.57 2.37
4 2 -19 7.78 3.16
-4 2 -19 4.55 3.45
-4 2 19 1.07 4.59
4 2 19 7.98 3.12
4 2 -19 7.3 2.97
4 2 -19 0.68 3.29
-4 2 20 24.08 5.06
4 2 20 6.14 3.6
4 2 -20 17.94 3.34
4 2 20 8.19 4.96
-4 2 -20 10.97 3.54
-4 2 20 12.52 3.32
4 2 -20 15.11 3.94
-4 2 -20 10.2 4.05
-4 2 20 17.69 5.72
4 2 20 10.49 3.68
4 2 -20 9.03 3.56
4 2 -20 12.63 4.19
-4 2 21 10.42 4.15
4 2 21 4.57 3.83
4 2 -21 8.84 2.99
4 2 21 4.8 4.67
-4 2 -21 4.93 3.12
-4 2 21 3.82 2.77
4 2 -21 3.31 3.02
-4 2 -21 5.67 3.55
-4 2 21 2.27 3.93
4 2 21 4.54 2.79
4 2 -21 2.28 2.7
4 2 -21 5.06 3.42
-4 2 22 12.17 4.25
4 2 22 9.39 4.46
4 2 -22 13.96 3.32
4 2 22 6.28 4.72
-4 2 -22 14.94 4.01
-4 2 22 15.36 3.81
4 2 -22 16.49 4.05
-4 2 -22 21.78 5.1
-4 2 22 16.65 6.07
4 2 22 16.48 4.05
4 2 -22 15.45 4.01
4 2 -22 14.74 4.52
4 2 23 16.39 5.09
-4 2 23 13.24 4.32
4 2 -23 17.21 3.55
4 2 23 10.3 5.58
-4 2 -23 22.07 4.52
-4 2 23 9.67 3.55
-4 -2 -23 18.26 4.93
4 2 -23 10.1 3.71
-4 2 -23 10.37 4.25
-4 2 23 9.77 5.52
4 2 23 9.75 3.65
4 2 -23 13.81 3.82
4 2 -23 18.28 4.5
4 2 24 39.59 7.46
4 2 -24 45.11 5.6
4 2 24 42.66 8.87
-4 2 -24 43.7 6.35
-4 -2 -24 33.86 6.6
-4 2 24 43.96 5.92
4 2 -24 33.61 6.01
-4 2 -24 39.24 6.97
-4 2 24 28.86 7.46
4 2 24 37.39 5.92
4 2 -24 48.05 6.97
4 2 25 1.02 4.25
4 2 25 9.02 3.41
4 2 -25 9.3 3.06
4 2 25 5.46 5.44
-4 2 -25 1.3 3.13
-4 -2 -25 0.91 3.06
-4 2 25 7.58 3.18
4 2 -25 7.06 3.83
-4 2 -25 9.19 4.1
-4 2 25 5.15 5
4 2 -25 -0.81 3.41
-4 2 -26 5.02 3.2
4 2 26 -1.04 4.65
4 2 -26 4.54 2.7
4 2 26 4.21 4.51
-4 2 -26 -1.31 3.31
-4 -2 -26 8.42 4.16
-4 2 26 6.12 2.89
4 2 -26 4.86 3.38
-4 2 -26 -0.95 3.78
-4 2 26 1.32 5.26
4 2 26 3.99 3.3
4 2 -26 0.84 3.36
-4 2 -27 1.47 2.85
4 2 -27 -0.52 2.21
4 2 27 -2.88 5.27
-4 2 -27 -0.66 2.88
-4 -2 -27 1.91 3.71
-4 2 27 0.58 2.98
4 2 -27 0.85 3.29
-4 2 -27 -0.98 3.58
-4 2 27 1.36 4.82
4 2 27 -1.37 3.29
4 2 -27 -0.86 2.95
-4 2 -28 17.34 4.57
4 2 28 5.48 4.54
4 2 -28 19.2 4
4 2 28 5.9 5.31
-4 2 -28 12.11 3.83
-4 2 28 8.28 3.62
4 2 -28 12.25 4.27
-4 2 -28 17.08 4.88
-4 2 28 13.9 6.82
4 2 28 9.2 3.82
-4 -2 -28 4.9 4.26
4 2 -28 13.33 4.48
-4 2 -29 21.63 5.46
4 2 29 13.47 5.92
4 2 -29 45.49 5.93
4 2 29 22.63 7.75
-4 2 -29 43.28 6.16
-4 -2 -29 46.1 7.5
-4 2 29 41.44 5.79
4 2 -29 28.4 6.32
-4 2 -29 30.98 6.64
-4 2 29 42.7 9.37
4 2 29 40.4 6.28
4 2 -29 46.07 7.34
-4 2 -30 -1.57 3.57
4 2 30 1.15 4.46
4 2 -30 -0.56 2.52
-4 2 -30 -2.72 3.15
-4 -2 -30 -3.08 3.53
-4 2 30 0.63 3.06
4 2 -30 -0.94 3.14
-4 2 -30 2.12 3.78
-4 2 30 -8.74 5.8
4 2 30 -1.49 3.43
4 2 -30 -0.96 3.71
-4 2 -31 8.04 3.77
4 2 31 7.05 4.6
4 2 -31 12.55 3.53
-4 2 -31 7.62 3.75
-4 -2 -31 9.43 4.61
-4 2 31 6.46 3.73
4 2 -31 10.82 4.5
-4 2 -31 5.45 4.79
-4 2 31 7.45 5.66
4 2 31 9.93 4.01
4 2 -31 7.79 4.46
-4 2 -32 12.33 4.25
4 2 32 4.81 5.22
4 2 -32 17.89 4.03
-4 2 -32 17.51 4.72
-4 -2 -32 8.57 4.77
-4 2 32 11.93 4.16
4 2 -32 16.18 5.56
-4 2 -32 13.41 5.44
-4 2 32 18.28 7.23
4 2 32 14.14 4.94
4 2 -32 15.16 5.18
-4 2 -33 39.98 6.67
4 2 33 28.22 7.45
4 2 -33 36.06 5.59
-4 2 -33 36.1 6.04
-4 -2 -33 37.23 7.27
4 2 -33 30.12 6.88
-4 2 33 39.52 6.15
-4 2 -33 19.47 6.62
-4 2 33 26.46 8.17
4 2 33 25.81 5.99
-4 2 -34 -0.85 3.54
4 2 34 -2.51 4.98
4 2 -34 -1.21 2.79
-4 2 -34 2.84 3.4
-4 -2 -34 7.83 4.56
4 2 -34 4.32 4.29
-4 2 34 2.09 3.77
-4 2 -34 -1.17 3.76
-4 2 34 1.59 5.29
4 2 34 2.48 3.68
-4 2 -35 -5.2 4.01
4 2 35 -1.28 5.46
4 2 -35 -2.46 2.91
-4 2 -35 -0.72 3.08
-4 -2 -35 -5.67 4.29
4 2 -35 -2.21 4.3
-4 2 35 -7.14 3.98
-4 2 -35 -2.4 4.54
-4 2 35 -1.62 6.12
4 2 35 -5.1 4.9
-4 2 -36 14.72 4.74
4 2 36 6.52 5.36
4 2 -36 11.33 3.74
-4 2 -36 13.75 4.33
-4 -2 -36 10.41 5.29
4 2 -36 17.16 5.8
-4 2 36 2.19 3.79
-4 2 -36 4.91 4.93
-4 2 36 14.87 7.38
4 2 36 8.7 4.88
-4 2 -37 17.63 5.02
4 2 37 -10.62 7.18
4 2 -37 6.42 3.33
-4 2 -37 -0.73 3.33
-4 -2 -37 -3.54 4.57
4 2 -37 5.85 5.1
-4 2 37 -0.75 3.98
-4 2 -37 1.25 4.73
-4 2 37 -1.66 6.07
4 2 37 4.45 4.19
4 2 38 -6.76 5.64
-4 2 -38 -1.48 3.48
4 2 -38 -2.41 4.8
-4 2 38 -2.29 4.14
-4 2 -38 -2.56 4.84
-4 2 38 -1.69 6.36
4 2 38 -4.55 4.8
-4 2 -39 20.68 5.14
5 2 0 241.57 20.98
5 2 0 257.69 20.85
5 -2 0 188.75 21.59
-5 2 0 228.38 20.47
-5 2 0 252.43 20.74
-5 -2 0 274.58 21.16
5 -2 0 276.44 20.7
-5 2 0 225.82 19.95
5 2 1 475.54 36.39
5 2 1 486.66 36.1
5 2 -1 433.76 35.65
5 -2 -1 373.99 36.95
5 -2 1 402.97 37.14
-5 -2 -1 616.08 38.13
-5 2 -1 486.62 35.76
-5 2 1 422.95 35.66
5 2 -1 453.73 36.07
-5 2 -1 456.63 35.84
-5 2 1 438.2 35.69
-5 -2 -1 515.08 36.39
-5 -2 1 477.6 36.13
5 -2 1 522.81 35.85
5 -2 -1 468.73 35.64
-5 2 1 402.54 34.88
-5 2 -1 440.06 35.2
5 2 2 177.99 15.89
5 2 2 167.94 15.23
5 2 -2 173.66 15.02
5 -2 -2 142.9 16.29
5 -2 2 144.64 16.09
-5 -2 -2 200.2 16.74
-5 2 -2 170.85 14.75
-5 2 2 152.57 15.05
5 2 -2 203.76 15.8
-5 2 2 167.94 14.98
-5 -2 -2 170.61 15.32
-5 -2 2 189.01 15.51
5 -2 2 210.75 15.33
5 -2 -2 169.15 14.84
-5 2 -2 169.5 14.63
5 2 3 53.43 7.18
5 2 3 57.63 6.72
5 2 -3 47.1 6.1
5 -2 -3 56.75 8.03
5 -2 3 48.33 7.6
-5 -2 -3 62.79 7.84
-5 2 -3 49.82 6.01
-5 2 3 46.55 6.62
-5 2 3 48.16 6.15
5 2 -3 50.92 6.58
-5 -2 -3 58.72 6.78
-5 -2 3 82.91 7.39
5 -2 3 56.95 6.47
5 -2 -3 75.12 6.74
-5 2 -3 39.7 5.53
-5 2 3 50.59 6.02
5 2 4 187.03 18.2
5 2 4 205.67 17.83
5 2 -4 208.74 17.34
5 -2 -4 182.83 19.19
5 -2 4 187.76 18.66
-5 -2 -4 245.63 19.44
-5 2 -4 188.83 17.59
-5 2 4 197.12 17.96
-5 2 4 221.42 17.56
5 2 -4 226.77 18.12
-5 -2 -4 220.62 17.94
-5 -2 4 208.94 17.75
5 -2 4 228.39 17.54
5 -2 -4 231.61 17.56
-5 2 -4 185.18 17.02
-5 2 4 194.63 17.08
5 2 5 176.49 16.59
5 2 5 185.82 16.03
5 2 -5 172.33 15.11
5 -2 -5 146.85 16.94
5 -2 5 153.58 16.31
-5 -2 -5 218.38 17.39
-5 2 -5 154.12 15.51
-5 2 5 171.48 16.02
-5 2 5 188.46 15.4
-5 -2 -5 189.27 15.81
-5 -2 5 177.4 15.64
5 -2 5 187.61 15.29
5 -2 -5 207.65 15.57
5 2 -5 173.23 15.78
-5 2 -5 161.73 15.03
-5 2 5 187.66 15.21
5 2 6 13.16 3.79
5 2 6 9.49 3.75
5 2 -6 7.22 3.22
5 2 -6 11.34 3.11
-5 -2 -6 16.59 4.26
5 2 -6 6.65 2.48
-5 2 -6 6.62 2.97
-5 2 6 9.67 3.71
-5 2 6 7.21 2.8
-5 -2 -6 14.39 3.57
-5 -2 6 13.45 3.26
5 -2 6 10.55 3.06
5 -2 -6 13.83 3.17
-5 2 -6 17.67 3.38
-5 2 6 12.04 2.87
5 2 7 80.23 10.07
5 2 7 78.55 9.24
5 2 -7 94.15 8.61
-5 -2 -7 99.29 10.8
5 2 -7 79.43 8.28
-5 2 -7 79.11 8.94
-5 2 7 91.76 9.96
-5 2 7 98.64 8.79
-5 -2 -7 96.87 9.3
-5 -2 7 85.46 8.98
5 -2 7 92.73 8.72
5 -2 -7 93.83 8.77
-5 2 -7 80.03 8.63
-5 2 7 89.96 8.49
5 2 -7 83.64 9.29
5 2 8 6.1 3.06
5 2 8 13 4.3
5 2 -8 3.12 2.32
-5 -2 -8 3.15 3.93
5 2 -8 4.17 2.16
5 2 -8 6.93 3.2
-5 2 -8 4.38 2.71
-5 2 8 4.99 3.62
-5 2 8 6.95 2.69
-5 -2 -8 8.77 2.94
-5 -2 8 8.4 2.98
5 -2 8 7.99 2.61
5 -2 -8 8.89 2.76
-5 2 -8 7.09 2.64
-5 2 8 8.92 2.62
5 2 -9 177.49 16.51
5 2 9 185.75 16.85
5 2 9 149.72 17.27
-5 -2 -9 190.08 17.8
5 2 -9 183.22 15.68
-5 2 -9 173.66 16.48
-5 2 9 171.86 17.06
-5 2 9 202.3 15.92
-5 -2 -9 177.87 16.2
-5 -2 9 193.96 16.29
5 -2 9 199.02 15.97
5 -2 -9 197.87 15.96
5 2 -9 173.97 14.89
-5 2 9 219.15 15.86
5 2 10 58.11 7.05
-5 2 -10 59.99 6.97
5 2 10 53.7 7.04
5 2 -10 42.35 6.59
5 2 10 57.41 8.21
5 2 -10 49.28 5.98
-5 -2 -10 47.7 7.72
-5 2 -10 46.57 6.77
-5 2 10 47.86 7.46
-5 2 10 55.06 6.02
-5 -2 -10 59.86 6.86
-5 -2 10 51.05 6.44
5 -2 10 58.04 6.25
5 -2 -10 61.64 6.37
5 2 -10 43.04 5.16
-5 2 10 51.23 5.81
5 2 11 59.2 7.18
-5 2 -11 61.89 7.4
5 2 -11 64.68 7.69
5 2 11 52.34 7.28
5 2 11 47.97 8.36
-5 -2 -11 76.55 9.06
5 2 -11 52.01 6.32
-5 2 -11 40.31 6.61
-5 2 11 40.58 7.66
-5 2 11 60.02 6.25
-5 -2 -11 54.77 6.92
-5 -2 11 60.16 6.79
5 -2 11 73.81 7
5 -2 -11 57.31 6.41
5 2 -11 42.37 5.33
-5 2 11 62.25 6.15
-5 2 -12 445.32 34.67
5 2 12 448.15 35.13
5 2 12 380.94 35.77
5 2 -12 445.32 34.83
-5 -2 -12 435.67 35.91
5 2 -12 398.54 33.58
-5 2 -12 417.16 34.6
-5 2 12 385.19 35.3
-5 2 12 463.94 33.57
-5 -2 -12 447.89 34.26
-5 -2 12 403.51 33.77
5 -2 12 451.09 33.68
5 -2 -12 467.39 33.75
5 2 -12 429.7 34.16
5 2 -12 380.62 32.77
-5 2 12 450.67 33.28
5 2 12 492.83 35.15
5 2 13 12.82 4
5 2 -13 10.52 2.63
5 2 13 17.04 5.08
5 2 13 12.16 4.2
5 2 -13 17.74 4.62
-5 -2 -13 14.89 5.39
-5 2 -13 10.4 3.88
5 2 -13 17.91 3.69
-5 2 -13 6.54 3.31
-5 2 13 8.78 4.27
-5 2 13 20.85 3.51
-5 -2 -13 17.07 3.89
-5 -2 13 20.3 3.92
5 2 -13 14.1 3.86
5 -2 13 17.91 3.6
5 -2 -13 24 3.95
-5 2 13 15.41 3.05
-5 2 -14 106.64 10.43
5 2 14 76.89 10.08
5 2 14 99.24 12.26
5 2 -14 98.58 10.55
-5 -2 14 137.93 12.56
-5 -2 -14 97.7 11.49
5 2 -14 83.9 9.33
-5 2 -14 91.74 10.34
-5 2 14 98.42 11.68
-5 2 14 104.64 9.22
-5 -2 -14 87.49 9.5
-5 -2 14 94.64 9.59
5 -2 14 97.05 9.29
5 -2 -14 92.75 9.26
5 2 -14 88.79 9.75
5 2 -14 85.65 8.62
-5 2 14 111.81 9.03
5 2 15 12.13 4.75
5 2 -15 12.17 2.93
5 2 15 21.3 5.83
-5 -2 15 41.83 6.7
-5 -2 -15 24.45 6.42
-5 -2 -15 13.7 5.17
-5 2 -15 11.72 4.27
5 2 -15 15.52 3.79
-5 2 -15 12.02 4.23
-5 2 15 13.29 5.75
-5 2 15 26.58 3.89
-5 -2 -15 19.03 4.09
-5 -2 15 15.24 3.65
5 2 -15 16.71 4.89
5 2 -15 23.86 4.76
5 -2 15 17.41 3.69
5 -2 -15 22.16 3.96
-5 2 15 24.08 3.65
-5 2 -16 653.79 48.39
5 2 16 580.21 48.82
5 2 16 534.76 50.08
-5 -2 16 713.9 50.26
-5 -2 -16 684.6 50.54
5 2 -16 587.22 47.66
-5 2 -16 570.41 48.49
-5 2 16 529.92 49.44
-5 2 16 643.17 47.13
-5 -2 -16 614.79 47.79
5 -2 -16 621.85 47.18
5 2 -16 647.37 48.08
5 2 -16 572.92 46.71
5 2 -16 640.04 48.57
-5 2 16 650.1 46.92
-5 2 16 648.85 48.9
5 2 17 420.99 33.7
5 2 17 376.79 34.94
-5 -2 17 424.34 34.1
-5 2 17 439.25 31.94
-5 2 -17 379.41 33.03
5 2 -17 359.46 31.95
-5 2 17 315.33 33.7
-5 2 17 426.19 31.53
-5 -2 -17 411.18 32.16
5 -2 -17 408.23 31.51
5 2 -17 368.98 32.03
5 2 -17 358.52 31.03
5 2 -17 398.63 32.78
-5 2 17 478.91 31.52
-5 2 17 434.5 33.33
-5 2 -17 401.27 32.52
5 2 18 141.32 12.99
5 2 18 76.75 12.76
-5 2 18 135.37 11.06
5 2 -18 114.35 11.29
-5 2 -18 112.83 11.96
-5 2 18 110.11 13.46
5 2 -18 78.92 10.56
5 2 -18 103.76 10.09
5 2 -18 99.87 11.44
-5 2 -18 115.97 11.32
-5 2 -18 145.02 12.08
-5 2 18 114.96 11.98
-5 2 19 90.72 9.62
5 2 19 68.96 9.32
5 2 19 58.81 10.2
-5 2 19 94.63 8.37
5 2 -19 63.62 8.08
-5 2 -19 70.02 9.03
-5 2 19 57.08 9.72
5 2 -19 68.43 8.15
5 2 -19 69.87 7.35
5 2 -19 75.08 8.93
-5 2 -19 55.02 7.79
-5 2 -19 68.86 8.54
-5 2 20 330.82 26.32
5 2 20 360.13 27.62
5 2 20 247.88 27.63
-5 2 20 335.53 25.14
5 2 -20 286.4 25.36
-5 2 -20 317.56 26.62
-5 2 20 283.16 27.57
5 2 -20 291.44 25.16
5 2 -20 307.44 24.38
5 2 -20 284.25 25.67
-5 2 -20 329.93 25.88
-5 2 -20 276.86 25.19
-5 2 -21 16.06 4.28
-5 2 21 16.42 4.55
5 2 21 11.96 4.62
5 2 -21 10.77 3.11
5 2 21 22.05 6.82
-5 2 -21 21.63 4.84
-5 2 21 20.85 4.15
5 2 -21 15.41 4.2
-5 2 -21 22.29 5.29
-5 2 21 6.93 5.36
5 2 -21 14.6 4.05
5 2 -21 18.99 4.73
5 2 22 164.01 16.36
5 2 22 126.42 17.51
-5 2 22 183.27 14.79
5 2 -22 167.8 15.42
5 2 22 165.2 14.97
-5 2 -22 140.35 15.61
-5 2 22 126.75 16.81
5 2 -22 172.31 14.11
5 2 -22 174.91 15.77
-5 2 -22 164.28 15.24
-5 2 -22 132.32 14.63
-5 2 -23 8.12 3.76
5 2 23 11.59 4.82
5 2 -23 8.74 3.01
5 2 23 9.55 5.85
-5 2 -23 8.62 3.68
-5 2 23 4.36 3.3
5 2 -23 7.98 4.12
-5 2 -23 10.9 4.54
-5 2 23 14.57 6.04
5 2 23 10.48 4.12
5 2 -23 3.84 3.66
5 2 24 398.26 33.67
5 2 24 322.36 34.89
-5 2 24 426.59 31.61
5 2 -24 351.91 32.04
5 2 24 429.66 32.25
-5 2 -24 399.88 33.36
-5 2 24 376.04 34.7
5 2 -24 393.02 30.84
5 2 -24 402.13 32.57
-5 2 -24 462.31 32.45
-5 2 -24 308.32 31.37
5 2 25 280.3 24.23
5 2 25 206.75 25.03
-5 2 25 258.1 21.61
5 2 -25 237.11 22.45
5 2 25 266.67 22.28
-5 2 -25 238.35 23.25
-5 2 25 248.74 25.25
5 2 -25 245.48 20.91
5 2 -25 264.75 22.89
-5 2 -25 278.64 22.41
-5 2 -25 247.98 22.15
-5 2 -26 22.75 5.11
5 2 26 21.01 6.02
5 2 -26 19.92 4.31
-5 2 -26 33.59 5.7
-5 2 26 34.05 5.31
5 2 -26 20.43 5.08
-5 2 -26 29.75 6.54
-5 2 26 10.45 6.4
5 2 26 27.96 5.51
5 2 -26 24.88 5.51
-5 2 -27 6.72 3.48
5 2 27 11.82 5.12
5 2 -27 8.71 2.93
-5 2 -27 20.07 4.72
-5 2 27 12.1 3.82
5 2 -27 12.81 4.31
-5 2 -27 8.14 4.13
-5 2 27 14.7 5.88
5 2 27 11.71 4.15
5 2 -27 17.12 4.76
-5 2 -28 7.65 3.82
5 2 28 3.3 4.72
5 2 -28 8.4 3.04
-5 2 -28 13.26 4.29
-5 2 28 10.51 3.85
5 2 -28 10.55 3.94
-5 2 -28 4.18 4.08
-5 2 28 1.37 4.58
5 2 28 7.53 4.11
5 2 -28 4.41 3.28
-5 2 -29 16.45 4.65
5 2 29 22.46 6.64
5 2 -29 20.5 4.06
-5 2 -29 14.69 4.5
-5 -2 -29 26.07 6.18
-5 2 29 12.72 4
5 2 -29 8.26 4.15
-5 2 -29 18.22 5.42
-5 2 29 14.2 6.65
5 2 29 10.84 4.17
5 2 -29 16.41 4.93
-5 2 -30 8.65 4.14
5 2 30 -1.16 4.64
5 2 -30 3.32 2.97
-5 2 -30 3.55 3.58
-5 -2 -30 2.13 3.68
-5 2 30 3.9 3.33
5 2 -30 3.77 3.85
-5 2 -30 4.41 4.28
-5 2 30 2.9 5.48
5 2 30 2.39 3.68
5 2 -30 11.11 4.36
-5 2 -31 29.74 5.65
5 2 31 14.27 5.93
5 2 -31 25 4.74
-5 2 -31 28.47 5.55
-5 -2 -31 34.78 7.36
-5 2 31 22.71 5
5 2 -31 22.61 5.97
-5 2 -31 21.47 6.41
-5 2 31 22.22 7.97
5 2 31 13.88 4.88
5 2 32 78.9 11.32
5 2 32 82.92 10
-5 -2 -32 74.37 10.88
-5 2 32 60.11 8.47
5 2 -32 44.39 8.85
-5 2 -32 78.69 10.9
-5 2 32 87.7 12.95
5 2 -32 72 8.36
-5 2 -32 68.62 8.86
-5 2 -32 96.02 10.14
-5 2 -33 1.64 3.44
5 2 33 2.48 4.41
5 2 -33 6.54 3.31
-5 2 -33 11.54 4.06
-5 -2 -33 2.26 3.91
-5 2 33 0.7 3.06
5 2 -33 4.2 3.97
-5 2 -33 1.18 4.47
-5 2 33 1.54 5.31
5 2 33 0.86 3.82
-5 2 -34 54.51 7.91
5 2 -34 58.98 7.1
5 2 34 52.98 9.36
-5 2 -34 41.67 7
-5 -2 -34 28.85 7.56
-5 2 34 56.62 7.43
5 2 -34 31.23 7.16
-5 2 -34 39.94 8.57
-5 2 34 43.36 9.52
5 2 34 48.38 7.97
-5 2 -35 28.19 5.63
5 2 -35 21.76 4.8
5 2 35 15.42 6.69
-5 2 -35 25.78 5.39
-5 -2 -35 22.36 6.66
-5 2 35 14.68 4.74
5 2 -35 8.95 5.23
-5 2 -35 16.07 6.16
-5 2 35 4.73 5.75
5 2 35 18.01 5.69
-5 2 -36 75.11 9.65
5 2 36 74.58 11.73
-5 -2 -36 73.08 11.11
5 2 -36 78.97 10.96
-5 2 36 67.51 9.14
-5 2 -36 60.61 10.55
-5 2 36 61.02 12.43
5 2 36 74.61 10.12
5 2 -36 75.62 9.12
-5 2 -36 81.76 9.52
5 2 37 22.63 7.39
-5 2 -37 38.01 6.59
5 2 -37 31.97 7.39
-5 2 37 46.79 7.09
-5 2 -37 34.79 8.13
-5 2 37 34.3 9.45
5 2 37 43.31 7.62
-5 2 38 6.24 3.75
5 2 38 0.96 4.02
6 2 0 -1.07 2.29
6 -2 0 2.5 2.97
-6 -2 0 -1.48 3.28
-6 2 0 0.5 2.27
-6 2 0 -1.02 2.07
6 -2 0 3.16 2.41
-6 2 0 1.22 2.17
6 2 1 12.04 3.64
6 2 -1 19.95 3.86
6 -2 -1 13.57 4.29
6 -2 1 8.17 3.88
-6 -2 -1 14.1 4.38
-6 2 -1 13.7 3.36
-6 2 1 15.74 3.91
-6 2 -1 22.13 3.9
-6 2 1 13.55 3.42
6 -2 1 20.28 3.6
6 -2 -1 19.84 3.67
-6 2 1 19.59 3.49
6 2 2 12.35 3.53
6 2 -2 11.2 3.16
6 -2 -2 9.55 4.32
6 2 -2 15.73 4.01
6 -2 2 15.16 4.23
-6 -2 -2 9.01 4.15
-6 2 -2 11.87 3.08
-6 2 2 8.77 3.09
-6 2 -2 11.97 3.29
-6 2 2 9.88 3.23
6 -2 2 13.06 3.27
6 -2 -2 11.73 3.18
-6 2 2 16.02 3.13
6 2 3 29.34 4.98
6 2 -3 40.45 5.29
6 2 3 33.62 5.93
6 -2 -3 28.45 5.94
6 2 -3 47.64 6.08
-6 -2 -3 35.1 6.26
-6 2 -3 34.87 4.83
-6 2 3 29.85 5.18
-6 2 -3 32.55 4.94
-6 2 3 42.39 5.32
6 -2 3 45.9 5.42
6 -2 -3 37.88 4.97
-6 2 3 27.66 4.46
6 2 4 10.64 3.31
6 2 -4 4.41 2.46
6 2 4 3.89 3.12
6 -2 -4 6.39 3.37
-6 -2 -4 5.46 4
6 2 -4 8 3.22
-6 2 4 7.86 3.42
-6 2 -4 4.93 2.74
-6 2 4 0.96 2.29
6 -2 4 7.64 2.83
6 -2 -4 7.67 2.6
-6 2 4 3.52 2.32
6 2 5 6.65 2.93
6 2 -5 13.31 3.16
6 2 5 8.89 4.13
-6 -2 -5 7.95 3.94
-6 2 5 7.61 3.22
-6 2 -5 12.92 3.5
-6 2 5 11.33 3.11
6 2 -5 11.79 3.93
6 -2 5 8.98 2.96
6 -2 -5 10.37 3.08
-6 2 5 9.1 2.75
6 2 6 60.81 7.07
6 2 -6 52.44 6.14
6 2 6 50.4 7.72
-6 -2 -6 56.82 7.86
-6 2 6 45.16 6.74
-6 2 -6 43.44 6.46
-6 2 6 46.88 5.96
6 -2 6 55.58 6.13
6 -2 -6 47.75 5.91
6 2 -6 43.29 6.55
-6 2 6 54.62 5.81
6 2 -7 3.82 3.4
6 2 7 -0.64 2.54
6 2 -7 1.39 2.37
6 2 7 -0.89 3.34
-6 -2 -7 0.83 3.63
6 2 -7 1.67 1.94
-6 2 7 2.79 2.71
-6 2 -7 5.43 2.89
-6 2 7 4.11 2.47
6 -2 7 3.59 2.43
6 -2 -7 2.7 2.47
-6 2 7 3.81 2.28
6 2 -8 57.02 6.44
6 2 8 53.04 7.16
6 2 8 50.44 8.1
6 2 -8 60.76 6.39
-6 -2 -8 51.33 7.92
-6 2 -8 39.43 6.49
-6 2 8 62.37 7.88
-6 2 8 53.63 6.33
6 -2 8 53.73 6.41
6 -2 -8 56.2 6.36
6 2 -8 77.09 7.92
-6 2 8 55.29 6.03
-6 2 -8 48.78 6.06
-6 2 -9 3.46 2.48
6 2 9 2.7 2.97
6 2 -9 3.62 2.4
6 2 9 13.28 4.57
6 2 -9 5.27 3.13
-6 -2 -9 13.74 4.79
6 2 -9 7.58 2.67
-6 2 -9 4.42 3.16
-6 2 9 5.27 3.93
-6 2 9 8.94 2.71
6 -2 9 10.27 3.06
6 -2 -9 9.45 2.87
-6 2 9 7.42 2.45
6 2 10 106.08 11.16
6 2 10 82.34 11.69
-6 -2 -10 90.42 11.65
6 2 -10 89.86 9.81
-6 2 10 96.54 11.47
-6 2 10 120.98 10.21
6 -2 10 112.32 10.23
6 -2 -10 123.99 10.38
-6 2 -10 116.28 11.26
-6 2 10 121.74 9.92
6 2 -10 112.79 11.29
-6 2 -10 84.35 9.74
6 2 11 67.84 8.32
6 2 11 63.7 8.01
6 2 11 53.17 9.38
6 2 -11 51.77 6.68
-6 -2 -11 66.46 9.05
-6 2 -11 61.89 8.01
-6 2 -11 56.09 7.72
-6 2 11 64.77 8.73
-6 2 11 60.18 6.8
6 2 -11 57.44 7.8
-6 -2 11 57.87 7.23
6 -2 11 76.39 7.3
6 -2 -11 59.2 6.98
-6 2 11 74.65 6.77
-6 2 -11 56.85 6.86
-6 2 -12 2.93 2.39
6 2 12 -0.73 3.11
6 2 12 -1.05 3.64
6 2 12 5.69 3.64
-6 -2 -12 0.92 3.74
-6 2 -12 5.86 2.96
6 2 -12 0.49 2.24
-6 2 -12 0.7 2.98
-6 2 12 5.96 3.86
-6 2 12 1.73 2.26
-6 -2 12 6.36 3.13
6 -2 12 6.72 2.68
6 -2 -12 4.03 2.76
6 2 -12 -1.4 4.07
-6 2 12 2.22 2.06
-6 2 -13 23.69 4.47
6 2 -13 28.16 3.88
6 2 13 26.37 5.59
6 2 -13 30.71 5.15
6 2 13 41.33 7.62
6 2 13 33.3 5.63
-6 -2 -13 28.11 6.28
-6 2 -13 33.41 5.49
6 2 -13 18.94 4.27
-6 2 -13 32.21 5.61
-6 2 13 25.79 6.35
-6 2 13 30.16 4.4
-6 -2 -13 35.4 5.12
-6 -2 13 26.38 4.61
6 -2 13 34.82 4.88
6 -2 -13 36.53 4.92
-6 2 13 36.91 4.45
-6 2 -14 15.69 3.7
6 2 -14 14.88 2.95
6 2 14 19.23 4.88
6 2 14 24.52 5.08
6 2 14 15.75 5.6
-6 2 14 18.46 3.54
6 2 -14 9.52 4.38
-6 -2 -14 27.6 6.38
-6 2 -14 14.51 4.27
6 2 -14 13.31 3.55
-6 2 -14 8.85 3.72
-6 2 14 15.5 5
-6 -2 -14 14.64 3.86
-6 -2 14 15.77 3.72
6 2 -14 14.26 4.1
6 -2 14 16.2 3.59
6 -2 -14 23.37 3.93
-6 2 14 18.07 3.27
-6 2 -15 12.46 3.53
6 2 -15 9.31 2.68
6 2 15 17.5 4.7
6 2 15 15.98 4.24
6 2 15 4.63 4.83
-6 -2 -15 14.61 5.16
-6 2 -15 25.21 4.38
6 2 -15 13.85 3.73
-6 2 -15 9.13 3.79
-6 2 15 12.4 4.98
-6 2 15 12.8 3.26
6 2 -15 15.72 4.73
-6 -2 -15 21.94 4.13
-6 -2 15 16.69 3.77
6 2 -15 14.38 3.83
6 -2 15 20.62 3.88
6 -2 -15 17.92 3.62
-6 2 15 11.95 2.83
-6 2 -16 94.69 10.12
6 2 16 97.54 10.97
6 2 -16 103.13 10.81
6 2 16 85.79 12.3
-6 -2 -16 83.6 11.24
6 2 -16 85.85 9.44
-6 2 -16 87.83 10.47
-6 2 16 78.22 11.1
-6 2 16 109.86 9.28
-6 -2 -16 87.7 9.46
6 -2 -16 91.21 9.06
6 2 -16 84.59 9.41
6 2 -16 82.98 8.37
-6 2 -16 84.65 9.36
-6 2 -17 1.74 2.74
-6 2 17 8.16 3.62
6 2 -17 2.24 1.95
6 2 17 5.88 3.67
6 2 17 6.13 4.76
-6 2 -17 2.68 3.43
-6 -2 -17 8.11 4.77
6 2 -17 -2.36 3.78
6 2 -17 0.59 2.49
-6 2 -17 0.81 3.29
-6 2 17 9.21 4.46
-6 2 17 4.07 2.49
-6 -2 -17 2.24 2.83
6 2 -17 8.77 3.3
6 -2 -17 4.94 2.57
-6 2 -18 8.38 3.68
-6 2 18 19.34 4.74
6 2 -18 14.74 3.08
6 2 18 12.01 4.3
6 2 -18 12.19 4.45
6 2 18 21.46 6.62
-6 2 -18 18.84 4.59
6 2 -18 10.53 3.63
-6 2 -18 9.17 4.05
-6 2 18 16.77 5.37
-6 2 18 19.34 3.65
6 2 -18 11.88 3.76
6 2 -18 18.66 4.54
-6 2 -19 14.2 3.74
6 2 -19 16.05 3.19
6 2 19 14.21 4.37
6 2 -19 9.95 4.65
6 2 19 7.78 5.62
-6 2 -19 15.56 4.33
-6 2 19 11.12 3.6
6 2 -19 15.49 3.89
-6 2 -19 14.55 4.42
-6 2 19 10.74 5.24
6 2 -19 16.72 4.5
-6 2 -20 26.73 5.28
6 2 -20 37.84 4.91
6 2 20 45.37 7.39
-6 2 -20 34.72 6.24
-6 2 20 38.77 5.6
6 2 -20 30.96 5.54
-6 2 -20 42.51 6.97
-6 2 20 28.04 7.01
6 2 -20 42.42 7.28
6 2 -20 28.8 5.75
6 2 21 122.36 13.81
-6 2 21 126.06 12.18
6 2 -21 115.84 12.52
-6 2 -21 130.93 13.89
-6 2 21 103.32 14.04
6 2 -21 132.53 11.53
6 2 -21 120.54 13
-6 2 -21 139.4 13.05
-6 2 -21 126.06 12.55
-6 2 -22 7.94 3.53
6 2 -22 8 2.94
6 2 22 13.45 4.72
-6 2 -22 5.54 3.48
-6 2 22 19.67 4.09
6 2 -22 2.89 3.27
-6 2 -22 7.46 4.11
-6 2 22 16.46 6.03
6 2 -22 3.05 3.99
6 2 23 69.7 9.76
-6 2 23 84.69 8.65
6 2 -23 59.64 8.59
-6 2 -23 59.5 9.44
-6 2 23 69.72 10.74
6 2 -23 69.81 7.48
6 2 -23 62 8.71
-6 2 -23 76.18 8.89
-6 2 -23 68.06 8.42
-6 2 -24 36.35 5.89
6 2 -24 31.75 4.8
6 2 24 31.07 6.71
-6 2 -24 32.75 5.74
-6 2 24 24.82 5.08
6 2 -24 37.29 6.18
-6 2 -24 26.56 6.42
-6 2 24 26.4 7.18
6 2 -24 39.54 6.47
-6 2 -25 65.28 8.2
6 2 25 87.03 10.41
-6 2 25 44.9 7.12
6 2 -25 51.02 7.95
-6 2 -25 69.58 9.67
-6 2 25 48.82 9.9
6 2 -25 67.9 7.31
6 2 -25 54.28 8.24
-6 2 -25 80.56 8.84
-6 2 -26 19.5 4.37
6 2 -26 16.1 3.71
6 2 26 11.67 4.91
-6 2 -26 13.5 4.39
-6 2 26 11.27 3.9
6 2 -26 8.33 3.83
-6 2 -26 6.2 4.22
-6 2 26 19.69 6.47
6 2 -26 19.17 4.95
-6 2 -27 2.96 3.43
6 2 -27 6.21 2.93
6 2 27 -1.08 4.53
-6 2 -27 3.58 3.26
-6 2 27 6.43 3.58
6 2 -27 9.54 3.94
-6 2 -27 1.06 3.55
-6 2 27 1.34 4.78
6 2 -27 6.85 3.97
-6 2 -28 6.82 3.85
6 2 -28 6.92 2.97
6 2 28 11.05 4.94
-6 2 -28 15.13 4.33
-6 2 28 7.85 3.53
6 2 -28 3.56 3.4
-6 2 -28 10.87 4.57
-6 2 28 1.37 4.75
-6 2 -29 17.06 4.57
6 2 -29 19.15 3.94
6 2 29 6.76 4.47
-6 2 -29 8.7 3.93
-6 2 29 9.98 4.21
6 2 -29 13.9 4.53
-6 2 -29 8.9 5.32
-6 2 29 26.55 7.51
-6 2 -30 6.22 3.92
6 2 -30 5.05 3.24
6 2 30 -1.15 5.01
-6 2 -30 2.2 3.27
-6 2 30 6.14 3.94
6 2 -30 1.93 3.93
-6 2 -30 -1.14 4.53
-6 2 30 2.85 5.53
-6 2 -31 19.08 5.16
6 2 -31 33.38 5.19
6 2 31 28.1 7.2
-6 2 -31 23.49 5.41
-6 2 31 36.12 6.11
6 2 -31 26.67 6.17
-6 2 -31 23.28 6.53
-6 2 31 47.94 9.45
-6 2 -32 4.87 3.98
6 2 -32 11.76 3.5
6 2 32 1.19 5
-6 2 32 11.84 6.19
-6 2 -32 6.61 3.72
-6 2 32 6.4 3.78
6 2 -32 7.19 4.11
-6 2 -32 5.94 4.26
6 2 32 7.01 4.7
6 2 33 92.27 12.39
-6 2 33 97.75 10.51
6 2 -33 58.89 10.36
-6 2 -33 86.23 12.06
-6 2 33 78.41 13.06
6 2 33 73.53 10.45
6 2 -33 91.51 9.72
-6 2 -33 105.89 10.88
-6 2 -33 92.73 10.88
-6 2 -34 60.07 8.38
6 2 -34 49.89 6.9
6 2 34 59.01 9.92
-6 2 -34 53.53 7.72
-6 2 34 45.92 7.38
6 2 -34 38.21 8.02
-6 2 -34 43.54 8.79
-6 2 34 32.22 9.32
6 2 34 54.07 8.34
-6 2 -35 10.2 4.48
6 2 -35 -0.63 2.87
6 2 35 2.55 5.57
-6 2 35 5.28 3.86
6 2 -35 5.58 4.77
-6 2 -35 8.89 5.18
-6 2 35 1.56 5.38
6 2 35 6.56 4.42
-6 2 36 -0.77 3.21
6 2 -36 -1.16 4.12
-6 2 -36 -2.59 4.88
6 2 36 -0.96 4.08
7 2 0 2.97 3.19
-7 2 0 5.45 2.89
-7 2 0 2.88 2.43
7 2 1 290.27 25.3
7 2 -1 328.99 25.51
-7 -2 -1 337.24 26.89
-7 2 -1 300.55 24.99
-7 2 1 303.7 25.23
-7 2 -1 310.3 25.2
-7 2 1 292.32 24.97
-7 2 -1 298.75 24.46
-7 2 1 307.43 24.47
7 2 2 25.96 5.14
7 2 -2 30.32 5.14
7 -2 -2 24.84 5.55
-7 -2 -2 47.91 6.89
-7 2 -2 31.35 4.93
-7 2 2 30.05 5.24
-7 2 -2 39.77 5.47
-7 2 2 24.39 4.62
-7 2 -2 29.4 4.44
-7 2 2 26.41 4.33
7 2 3 340.23 30.11
7 2 -3 415.72 30.34
-7 -2 -3 414.91 31.84
-7 2 -3 381.11 29.75
-7 2 3 368.53 30.23
7 2 -3 410.87 31.04
-7 2 -3 351.75 29.84
-7 2 3 376.93 29.83
-7 2 -3 342.15 29.08
-7 2 3 360.73 29.09
7 2 4 30.33 5.5
7 2 -4 25.44 4.97
7 2 -4 47.98 6.77
-7 2 4 34.63 5.82
-7 2 -4 45.01 5.84
-7 2 4 36.92 5.39
-7 2 4 31.68 4.69
7 2 5 31.02 5.43
7 2 -5 37.12 5.29
-7 2 5 38.35 5.29
-7 -2 -5 17.91 5.8
7 2 -5 36.4 6.09
-7 2 5 32.78 5.71
-7 2 -5 41.62 6.1
-7 2 -5 27.06 4.99
-7 2 5 41.14 4.81
7 2 6 31.79 5.55
7 2 -6 24.44 4.64
7 2 6 34.27 6.99
-7 -2 -6 35.47 6.92
-7 2 6 29.51 5.76
7 2 -6 19.02 5.5
-7 2 -6 33.3 5.81
-7 2 -6 30.22 5.03
-7 2 6 32.4 5.02
-7 2 6 33.54 4.47
7 2 7 26.94 5.18
7 2 -7 14.22 3.96
7 2 7 40.3 7.67
-7 -2 -7 41.27 6.83
7 2 -7 18.18 4.1
-7 2 7 26.52 5.32
-7 2 -7 21.37 5.23
7 2 -7 22.09 5.22
-7 2 7 23.38 4.35
-7 2 7 21.92 3.86
7 2 8 290.71 26.62
7 2 8 313.76 28.67
7 2 -8 344.93 26.22
-7 -2 -8 373.74 28.49
7 2 -8 344.24 26.02
-7 2 -8 308.04 26.78
-7 2 8 287.16 26.83
-7 2 8 310.11 25.78
7 2 -8 311.88 26.97
-7 2 8 316.01 25.22
7 2 9 694.53 52.34
7 2 -9 650.15 51.11
-7 -2 -9 724.89 53.75
7 2 -9 635.16 50.93
-7 2 -9 731.83 52.55
-7 2 9 654.44 52.48
-7 2 9 641 50.88
7 2 -9 659.03 52.32
-7 2 9 657.79 50.41
7 2 10 82.53 9.58
7 2 -10 83.49 8.73
-7 -2 -10 112.4 11.55
7 2 -10 68.89 8.37
-7 2 -10 93.13 9.95
-7 2 10 67.95 9.58
-7 2 10 79.25 8.44
7 2 -10 74.02 9.76
-7 2 10 82.05 8.02
7 2 11 395.82 32.8
7 2 11 380.97 32.48
-7 -2 -11 404.79 33.74
7 2 -11 386.9 31.37
-7 2 -11 416.33 32.76
-7 2 11 373.61 32.75
-7 2 11 392.46 31.15
7 -2 11 409.55 31.29
7 2 -11 393.42 32.58
-7 2 11 382.41 30.62
7 2 12 139.97 13.31
-7 2 -12 125.81 12.55
7 2 12 109.45 12.45
-7 -2 -12 129.86 13.87
7 2 -12 121.45 11.6
-7 2 -12 122.54 12.65
-7 2 12 114.09 13.05
-7 2 12 120.61 11.34
7 -2 12 121.24 11.36
-7 2 12 128.07 10.89
7 2 -12 109.45 12.58
-7 2 -12 104.81 11.07
-7 2 -13 7.45 2.96
7 2 13 1.58 2.76
7 2 13 7.36 3.87
7 2 13 -0.69 3.28
-7 -2 -13 3.96 4.43
7 2 -13 4.68 3.35
-7 2 -13 5.6 3.44
7 2 -13 11.18 3.21
-7 2 -13 4.65 3.61
-7 2 13 4.49 3.59
-7 2 13 7.27 2.96
7 -2 13 10.09 3.2
7 -2 -13 7.76 3.02
-7 2 13 8.14 2.66
7 2 14 74.68 9.12
7 2 14 68.16 8.98
7 2 14 57.88 8.15
7 2 -14 70.9 8
-7 -2 -14 74.83 10.15
-7 2 -14 72.87 9.03
-7 2 -14 64.7 8.46
-7 2 14 74.31 9.72
-7 2 14 74.65 7.68
7 2 -14 53.17 8.28
7 -2 14 78.01 7.87
7 -2 -14 69.58 7.49
-7 2 14 59.27 6.86
-7 2 -14 61.27 7.46
-7 2 -15 122.82 12.66
7 2 -15 113.11 12.89
7 2 15 118.21 12.86
-7 -2 -15 107.39 13.74
7 2 -15 124.16 12.01
-7 2 -15 120.39 12.97
-7 2 15 121.12 13.84
-7 2 15 126.53 11.56
7 -2 15 120.62 11.35
7 -2 -15 144.31 11.76
7 2 -15 123.95 12.03
7 2 15 113.48 12.95
-7 2 -15 108.69 11.43
7 2 -16 69.37 9.22
7 2 16 64.61 8.73
7 2 16 70.15 9.36
7 2 -16 61.15 7.87
-7 -2 -16 70.2 10.1
-7 2 -16 64.95 8.54
-7 2 -16 63.43 8.73
-7 2 16 60.31 9.49
-7 2 16 62.82 7.44
7 -2 -16 71.15 7.63
7 2 -16 66.23 7.91
-7 2 -16 69.39 7.79
-7 2 -17 17.64 4.1
7 2 17 19.06 5.24
7 2 -17 15.15 5.27
-7 -2 -17 28.94 6.72
-7 2 -17 23.65 5.22
7 2 -17 24.93 4.85
-7 2 -17 32.88 5.82
-7 2 17 19.51 5.78
-7 2 17 17.1 3.86
7 -2 -17 28.22 4.44
-7 2 -18 79.99 8.87
7 2 18 66.08 8.99
-7 -2 -18 62.07 9.6
7 2 -18 56.87 8.55
7 2 -18 55.17 7.57
-7 2 -18 62.21 8.99
-7 2 18 53.5 8.99
-7 2 18 56.35 7.04
7 2 -18 55.09 6.45
-7 2 -18 65.75 7.63
-7 2 -19 98.65 11.01
7 2 19 112.83 11.96
7 2 -19 102.81 11.93
-7 -2 -19 77.86 11.95
7 2 -19 99.33 10.77
-7 2 -19 103.13 11.91
-7 2 19 98.25 12.69
-7 2 19 109.54 10.21
7 2 -19 93.65 9.33
7 2 -19 87.81 10.84
-7 2 -19 98.03 10.34
-7 2 -20 56.09 7.12
7 2 20 58.2 8.43
-7 2 -20 45.9 7.29
-7 -2 -20 46.36 8.66
7 2 -20 46.56 7.09
-7 2 -20 45.78 7.62
-7 2 20 53.53 9.06
-7 2 20 46.01 6.43
7 2 -20 45.94 5.99
7 2 -20 52.85 7.54
7 2 -20 69.44 8.88
-7 2 -21 17.96 4.06
7 2 -21 8.8 3
7 2 21 9.57 4.15
7 2 -21 7.36 4.47
-7 2 -21 12.96 4.55
-7 -2 -21 14.96 5.93
7 2 -21 7.32 3.28
-7 2 -21 8.6 4.23
-7 2 21 9.11 4.91
7 2 -21 13.93 4.63
-7 2 -22 27.69 4.98
7 2 -22 16.81 3.68
7 2 22 20.47 5.41
-7 2 -22 7.25 4.1
-7 2 22 14.79 4.17
7 2 -22 19.89 5.65
7 2 -22 13.53 4.13
-7 2 -22 19.63 5.58
-7 2 22 15.42 5.9
7 2 -22 18.82 4.88
-7 2 -23 25.73 4.98
7 2 -23 23.92 4.22
7 2 23 29.11 6.36
-7 2 -23 25.53 5.51
-7 2 23 21.51 4.79
7 2 -23 27.32 5.48
-7 2 -23 18.07 5.34
-7 2 23 20.58 6.43
7 2 -23 25.46 5.48
7 2 -23 24.15 6.2
-7 2 -24 9.04 3.88
7 2 -24 3.39 2.69
7 2 24 6.14 4.47
-7 2 -24 3.64 3.85
-7 2 24 7.77 3.38
7 2 -24 -0.99 4.04
7 2 -24 12.97 4.22
-7 2 -24 12.32 4.85
-7 2 24 2.47 4.93
7 2 -24 5.65 3.89
-7 2 -25 57.09 7.54
7 2 -25 47.91 6.42
7 2 25 51.08 8.74
-7 2 -25 58.87 7.95
7 2 -25 47.14 8.61
-7 2 25 51.78 7.34
7 2 -25 46.57 7.52
-7 2 -25 70.85 9.56
-7 2 25 47.89 9.8
-7 2 -26 36.84 5.88
7 2 -26 24.66 4.67
7 2 26 32.91 7.28
-7 2 -26 39.12 6.38
7 2 -26 25.58 7.04
-7 2 26 23.52 5.05
7 2 -26 25.06 5.53
-7 2 -26 19.45 5.8
-7 2 26 31.49 8.33
7 2 27 78.86 11.13
-7 2 27 74.88 9.49
7 2 -27 71.73 10.02
-7 2 -27 73.98 10.75
-7 2 27 77.59 12.45
7 2 -27 83.98 8.9
-7 2 -27 90.36 10.18
-7 2 -27 93.94 10.11
7 2 28 111.48 14.25
-7 2 28 113.63 12.85
7 2 -28 141.66 14.45
-7 2 -28 130.73 15.01
-7 2 28 125.38 15.88
7 2 -28 122.65 12.1
-7 2 -28 133.93 13.4
-7 2 -28 131 13.41
-7 2 -29 20.12 5.02
7 2 -29 23.96 4.62
7 2 29 15.88 5.96
-7 2 -29 25.41 5.51
-7 2 29 26.83 5.56
7 2 -29 32.43 6.41
-7 2 -29 17.41 5.82
-7 2 29 36.09 8.27
-7 2 -30 9.49 3.92
7 2 -30 2.29 3.01
7 2 30 1.15 4.11
-7 2 -30 3.02 3.62
-7 2 30 1.43 3.37
7 2 -30 0.98 3.48
-7 2 -30 1.19 4.47
-7 2 30 -1.41 5.19
-7 2 -31 7.98 3.98
7 2 -31 5.27 2.93
7 2 31 3.52 4.33
-7 2 -31 8.33 3.89
-7 2 31 2.93 3.59
7 2 -31 8.1 4.78
-7 2 -31 13.3 5.39
-7 2 31 1.44 4.97
-7 2 -32 7.33 3.93
7 2 -32 5.42 3.33
7 2 32 -1.19 4.14
-7 2 32 7.42 3.87
7 2 -32 11.38 4.62
-7 2 -32 8.63 4.8
-7 2 32 7.31 6.9
-7 2 -33 31.53 6.26
7 2 -33 32.66 5.55
7 2 33 36.39 7.8
-7 2 33 27.27 6.02
7 2 -33 32.2 6.78
-7 2 -33 27.64 7.15
-7 2 33 25.27 8.34
7 2 -34 11.97 3.8
-7 2 34 5.37 3.59
7 2 -34 -1.1 3.81
-7 2 -34 8.95 5.48
-7 2 34 9.06 6.6
-7 2 35 7.05 3.72
8 2 0 129.17 12.59
-8 2 0 132.38 12.44
-8 2 0 118.68 12.02
-8 2 0 124.71 11.32
8 2 1 27.39 5.22
8 2 -1 25.15 4.9
-8 2 -1 26.63 4.89
-8 2 1 25.18 4.69
-8 2 -1 24.05 4.49
-8 2 1 20.51 4.32
-8 2 -1 27.41 4.22
-8 2 1 23.8 4.05
8 2 2 21.09 4.61
8 2 -2 20.28 4.35
-8 -2 -2 19.26 5.85
-8 2 -2 23.93 4.41
-8 2 2 18.37 4.35
-8 2 -2 17.24 4.03
-8 2 2 19.06 4.14
-8 2 -2 12.33 3.3
-8 2 2 11.31 2.99
8 2 3 4.85 3.21
8 2 -3 1.87 2.73
-8 -2 -3 4.4 4.44
-8 2 3 1.31 2.86
-8 2 -3 4.77 2.87
-8 2 3 2.24 2.73
-8 2 -3 3.79 2.58
-8 2 3 3.58 2.22
8 2 -4 65.65 7.61
8 2 4 52.49 7.65
8 2 -4 65.83 8.48
-8 -2 -4 66.85 9.03
-8 2 4 52.25 7.46
-8 2 4 56.71 6.97
-8 2 -4 46.66 6.79
-8 2 -4 60.06 6.6
-8 2 4 58.78 6.48
8 2 5 118.33 12.8
8 2 -5 134.44 12.66
-8 -2 -5 164.86 14.89
-8 2 5 120.61 12.7
8 2 -5 135.62 13.54
-8 2 -5 131.9 12.51
-8 2 5 103.41 11.74
-8 2 -5 124.64 11.49
-8 2 5 130.2 11.4
8 2 6 142.88 14.87
8 2 -6 154.12 14.48
-8 -2 -6 177.63 16.73
-8 2 6 166.71 15.3
8 2 -6 155.79 15.35
-8 2 -6 138.09 14.3
-8 2 6 170.74 14.43
-8 2 -6 145.06 13.56
-8 2 6 165.25 13.55
8 2 7 19.36 4.91
8 2 -7 20.1 4.51
-8 -2 -7 14.07 6.02
8 2 -7 22.98 5.56
-8 2 7 17.94 4.79
-8 2 -7 26.11 5.38
-8 2 -7 16.22 4.33
-8 2 7 32.71 4.87
-8 2 -7 10.62 3.38
-8 2 7 30.09 4.06
8 2 8 84.59 9.86
8 2 -8 73.92 8.94
-8 -2 -8 78.99 10.85
-8 2 -8 81.97 9.86
-8 2 8 88.73 10.09
-8 2 -8 64.96 8.68
-8 2 8 102.14 9.19
8 2 -8 76.58 9.8
-8 2 8 82.73 8.1
8 2 9 3.09 3.37
8 2 -9 4.09 2.65
-8 -2 -9 0.97 4.49
8 2 -9 0.56 2.25
-8 2 9 0.79 3.16
-8 2 -9 0.77 3.01
-8 2 -9 2.54 2.65
8 2 -9 1.61 3.59
-8 2 9 2.66 2.55
-8 2 9 6.71 2.68
8 2 10 12.61 4.27
8 2 -10 4.66 3.24
-8 -2 -10 2.94 4.45
8 2 -10 1.72 2.24
-8 2 10 7.47 3.84
-8 2 -10 3.17 3.39
-8 2 -10 1.28 2.86
-8 2 10 2.65 2.5
8 2 -10 0.82 3.09
-8 2 10 3.55 2.29
8 2 11 50.77 7.45
8 2 -11 44.29 6.39
8 2 11 46.9 7.59
-8 -2 -11 49.27 8.38
8 2 -11 43.4 6.2
-8 2 11 36.4 7.06
-8 2 -11 53.79 7.68
-8 2 11 47.89 6.24
-8 2 11 52.79 5.82
8 2 -11 47.83 7.51
8 2 -12 10.03 4.14
8 2 12 13.9 4.37
8 2 12 9.82 4.18
-8 -2 -12 10.25 5.72
8 2 -12 17.98 4.09
-8 2 12 14.12 4.63
-8 2 -12 12.57 4.53
-8 2 12 15.94 3.66
-8 2 12 20.25 3.47
8 2 13 24.27 5.11
8 2 -13 9.35 4.41
8 2 13 19.92 5.07
-8 -2 -13 18.84 5.81
8 2 -13 22.76 4.47
-8 2 -13 17.1 4.86
-8 2 13 19.31 5.64
-8 2 -13 17.01 4.9
-8 2 13 18.18 4.08
8 2 14 17 4.82
8 2 14 6.44 3.61
8 2 -14 9.49 4.38
-8 -2 -14 11.66 5.45
-8 2 -14 4.49 3.87
8 2 -14 6.94 2.98
-8 2 14 12.18 4.53
-8 2 -14 9.54 4.2
-8 2 14 6.45 3.05
-8 2 -15 34.74 5.43
8 2 15 34.82 6.57
8 2 15 40.17 7.35
8 2 -15 34.99 7.09
-8 -2 -15 37.9 7.91
-8 2 -15 40.52 6.86
8 2 -15 38.89 6.15
-8 2 15 37.22 7.51
-8 2 -15 42.39 7.19
-8 2 15 45.01 5.88
-8 2 -16 42.61 5.68
8 2 16 37.5 6.88
8 2 16 38.96 7.06
8 2 16 33.09 6.52
-8 -2 -16 51.89 8.79
-8 2 -16 28.59 6.04
8 2 -16 24 6.38
8 2 -16 29.83 5.62
-8 2 -16 39.64 6.88
-8 2 16 28.94 6.92
-8 2 16 51.85 6.08
-8 2 -17 5.21 2.61
8 2 17 3.63 3.45
8 2 17 6.79 3.69
8 2 17 6.59 3.61
-8 -2 -17 5.6 4.89
-8 2 -17 9.1 4.34
8 2 -17 8.89 3.47
8 2 -17 3.62 4.13
-8 2 -17 0.92 3.31
-8 2 17 3.13 3.85
-8 2 17 8.99 3.19
8 -2 -17 9.34 3.26
-8 2 -18 0.6 2.75
8 2 18 -0.99 3.94
8 2 18 0.92 3.67
-8 -2 -18 3.43 4.06
-8 2 -18 1.52 3.51
8 2 -18 2.82 3.07
-8 2 -18 -1.9 3.68
-8 2 18 -2.13 4.23
-8 2 18 2.82 2.51
8 2 -18 -0.92 4.17
-8 2 -19 13.5 3.64
8 2 19 7.56 4.13
-8 2 -19 15.88 4.79
-8 -2 -19 18.55 6.41
8 2 -19 11.63 3.98
-8 2 -19 9.68 4.39
-8 2 19 16.25 5.84
-8 2 19 10.38 3.32
8 2 -19 12.17 5
-8 2 -20 10.73 3.62
8 2 -20 5.73 4.7
8 2 20 7.69 4.33
-8 2 -20 10.57 4.35
-8 -2 -20 14.22 5.81
8 2 -20 7.44 3.75
-8 2 -20 7.97 4.39
-8 2 20 6.79 4.77
-8 2 20 11.77 3.58
8 2 -20 11.14 4.24
-8 2 -21 3.25 3
8 2 21 -0.99 3.92
8 2 -21 5.83 4.05
-8 2 -21 -2.27 3.49
-8 -2 -21 -2.41 4
8 2 -21 1.54 2.82
-8 2 -21 3.05 3.84
-8 2 21 3.46 4.35
-8 2 21 -1.2 2.72
8 2 -21 4.82 3.64
-8 2 -22 6.67 3.34
8 2 22 9.03 4.49
8 2 -22 3.95 4.6
-8 2 -22 6.06 4.02
-8 -2 -22 7.36 5.03
8 2 -22 9.52 3.97
-8 2 -22 5.18 4.26
-8 2 22 16.45 6.02
-8 2 -23 8.21 3.35
8 2 -23 3.9 2.62
8 2 23 8.16 4.55
-8 2 -23 3.04 3.72
-8 -2 -23 4.99 4.84
8 2 -23 -3.03 5.54
8 2 -23 9.03 3.81
-8 2 -23 -1.06 3.79
-8 2 23 6.12 4.75
-8 2 -24 3.48 3.17
8 2 -24 9.54 3.39
8 2 24 8.39 4.68
-8 2 -24 8.4 4.15
-8 -2 -24 6.33 4.92
-8 2 24 5.49 3.63
8 2 -24 3.36 3.28
-8 2 -24 8.66 4.32
-8 2 24 -1.25 4.72
8 2 -24 -1.03 4.76
-8 2 -25 16.38 4.61
8 2 -25 15.5 3.92
8 2 25 16 5.6
-8 2 -25 12.33 4.69
-8 -2 -25 14.16 5.68
-8 2 25 10.53 4.1
8 2 -25 10.43 4.33
-8 2 -25 16.55 5.27
-8 2 25 10.15 5.82
8 2 -25 3.14 5.95
-8 2 -26 6.56 3.55
8 2 -26 -1.06 2.63
8 2 26 -1.08 3.86
-8 2 -26 2.3 3.86
-8 2 26 0.72 3.55
8 2 -26 4.44 3.44
-8 2 -26 -3.39 4.26
-8 2 26 1.29 4.73
8 2 -26 -2.14 5.13
-8 2 -27 14.92 4.3
8 2 -27 14.19 3.73
8 2 27 5.51 4.49
8 2 -27 4.36 5.48
-8 2 -27 20.72 5.01
-8 2 27 10.97 4.07
8 2 -27 12.88 4.58
-8 2 -27 21.87 5.87
-8 2 27 19.7 6.78
-8 2 -28 12.96 4.38
8 2 -28 19.05 4.15
8 2 28 16.99 5.72
8 2 -28 12.18 5.85
-8 2 28 12.55 4.5
8 2 -28 22.87 5.61
-8 2 -28 17.59 6.01
-8 2 28 10.88 6.15
-8 2 -29 3.9 3.51
8 2 -29 4.6 3.24
8 2 29 12.65 4.83
-8 2 29 4.47 3.61
8 2 -29 13.63 4.7
8 2 -29 15.91 6.09
-8 2 -29 12 5.26
-8 2 29 8.3 5.79
-8 2 -30 2.39 3.47
8 2 -30 0.59 2.82
8 2 30 1.17 4.02
-8 2 30 2.28 3.45
8 2 -30 1.01 3.35
-8 2 -30 3.67 4.74
-8 2 30 -1.41 5
8 2 -30 -5.78 5.9
-8 2 -31 49.98 7.38
8 2 -31 38.02 6.06
8 2 -31 41.1 8.19
8 2 31 35.57 8.13
-8 2 31 34.53 6.5
8 2 -31 39.07 7.59
-8 2 -31 34.83 7.88
-8 2 31 48.53 9.51
-8 2 -32 32.86 6.01
8 2 -32 19.94 4.85
8 2 32 33.67 7.45
8 2 -32 23.86 6.85
-8 2 32 21.92 5.58
8 2 -32 15.94 5.69
-8 2 -32 26.58 6.97
-8 2 32 23.18 7.49
8 2 -33 1.27 3.2
-8 2 33 -1.58 3.79
9 2 0 7.81 3.46
-9 2 0 10.38 3.79
-9 2 0 8.49 3.11
-9 2 0 7.68 2.61
9 2 1 17.34 4.31
9 2 -1 12.6 4.09
-9 2 -1 22.49 4.46
-9 2 1 15.16 3.96
-9 2 -1 19.11 4.22
-9 2 1 12.11 3.86
-9 2 -1 16.4 3.31
-9 2 1 12.34 3.02
9 2 2 11.75 3.88
9 2 -2 4.12 3.07
-9 2 2 4.75 3.1
-9 2 -2 5.64 3.27
-9 2 2 2.38 2.46
-9 2 -2 3.65 2.6
-9 2 2 6.04 2.38
9 2 3 80.78 9.33
9 2 -3 61.56 8.4
-9 -2 -3 79.13 10.05
-9 2 3 82.43 9.31
-9 2 -3 82.88 8.86
-9 2 3 71.35 8.36
-9 2 -3 81.23 7.85
-9 2 3 68.09 7.47
9 2 -4 64.17 7.65
9 2 4 60.13 7.76
-9 -2 -4 52.15 8.43
-9 2 4 52.53 7.41
-9 2 -4 54.1 7.03
-9 2 4 50.34 6.7
-9 2 -4 45.33 5.87
-9 2 4 54.43 6.1
9 2 5 9.99 3.88
9 2 -5 0.67 2.54
-9 -2 -5 3.84 4.45
-9 2 5 7.29 3.68
-9 2 -5 5.81 3.21
-9 2 5 4.1 2.87
-9 2 -5 8.35 2.67
-9 2 5 2.81 2.2
9 2 6 6.26 3.49
9 2 -6 1.99 2.72
9 2 -6 6.06 4.37
-9 -2 -6 3.9 3.99
-9 2 6 4.52 3.8
-9 2 -6 1.94 2.9
-9 2 6 7.55 3.08
-9 2 -6 4.71 2.49
-9 2 6 6.41 2.36
9 2 7 19.89 4.92
9 2 -7 13.83 4.26
9 2 -7 31.36 5.98
-9 -2 -7 22.9 6.23
-9 2 7 30.38 5.66
-9 2 -7 28.92 5.03
-9 2 7 21.33 4.18
-9 2 7 22.71 3.78
9 2 8 15.44 4.5
9 2 -8 9.81 3.58
9 2 -8 14.08 4.86
-9 -2 -8 25.08 6.57
-9 2 8 9.74 4.14
-9 2 -8 11.32 3.92
-9 2 8 11.47 3.49
-9 2 8 19.05 3.45
9 2 9 47.68 7.32
9 2 -9 47.51 7.02
-9 -2 -9 64.08 9.01
9 2 -9 46.97 7.84
-9 2 9 48.58 7.65
-9 2 -9 49.41 7.56
-9 2 -9 42.81 6.66
-9 2 9 42.48 6.33
-9 2 9 54.23 5.98
9 2 10 256.62 23.91
9 2 -10 265.61 23.32
-9 -2 -10 289.11 25.46
9 2 -10 257.26 22.95
-9 2 -10 305.3 24.73
-9 2 10 292.4 24.52
-9 2 -10 264.58 23.2
-9 2 10 268.42 22.74
9 2 -10 260.34 24.25
-9 2 10 274 21.98
9 2 11 140.72 14.84
9 2 11 138.15 14.22
9 2 -11 129.38 13.12
-9 -2 -11 149.57 15.65
9 2 -11 132.95 13.13
-9 2 -11 152.42 14.65
-9 2 11 124.21 14.14
-9 2 -11 114.99 12.86
-9 2 11 134.4 12.84
9 2 -11 145.96 14.64
9 2 12 32.13 6.15
9 2 -12 35.8 6.34
9 2 12 25.62 6.41
-9 -2 -12 26.59 7.36
9 2 -12 33.71 5.92
-9 2 12 20.77 5.78
-9 2 -12 38.74 6.64
-9 2 -12 29.57 5.58
-9 2 12 30.78 5.23
9 2 -12 35.52 6.61
9 2 13 49.56 7.36
9 2 13 47.9 7.42
-9 -2 -13 39.25 7.89
9 2 -13 28.96 5.51
-9 2 -13 35.37 6.81
-9 2 13 37.81 7.08
-9 2 -13 42.14 7.23
-9 2 -13 41.5 6.29
-9 2 13 37.95 5.66
9 2 -13 34.05 6.73
9 2 14 59.18 8.36
9 2 14 54.66 8.94
9 2 -14 61.33 7.66
-9 -2 -14 61.12 9.54
-9 2 -14 61.64 8.2
-9 2 14 55.69 8.44
-9 2 -14 60.11 8.71
-9 2 -14 48.16 7.11
-9 2 14 49.44 6.85
9 2 -14 46.57 8.12
9 2 -15 46.24 8.16
9 2 15 48.55 7.58
9 2 15 63.68 8.93
-9 -2 -15 50.57 8.83
-9 2 -15 46.84 7.61
9 2 -15 40.87 6.7
-9 2 15 54.01 8.42
-9 2 -15 52.01 8.12
-9 2 15 59.04 6.95
-9 2 -15 44.26 6.83
9 2 16 26.94 6.31
9 2 -16 40.17 7.19
9 2 16 39.65 7.51
-9 -2 -16 51.64 8.82
-9 2 -16 37.37 7.11
9 2 -16 46.67 6.8
-9 2 16 47.79 8.24
-9 2 -16 55.85 8.17
-9 2 16 41.46 5.97
9 2 17 9.49 4.24
9 2 17 11.7 5.11
9 2 -17 5.83 4.26
-9 -2 -17 8.21 5.44
-9 2 -17 5.57 4.15
9 2 -17 5.15 3.17
-9 2 17 6.2 4.71
-9 2 -17 0.99 3.45
-9 2 17 8.57 3.51
9 2 18 1.08 3.75
9 2 18 18.29 5.36
9 2 -18 2.96 4.03
-9 -2 -18 9.5 5.49
-9 2 -18 2.39 4.08
9 2 -18 1.51 2.95
-9 2 18 11.82 4.97
-9 2 -18 5.05 4.59
-9 2 18 3.13 3.11
9 2 19 51.9 8.66
9 2 19 31.49 6.98
9 2 -19 36.98 7.81
-9 2 -19 48.2 7.47
-9 -2 -19 38.72 8.47
9 2 -19 52.89 7.57
-9 2 19 44.77 8.36
-9 2 -19 47.25 8.04
-9 2 19 49.79 6.7
-9 2 -20 99.44 11.07
-9 2 -20 104.19 12.2
9 2 20 111.86 13.04
9 2 -20 101.58 11.85
-9 -2 -20 96.84 13.42
-9 2 -20 116.01 13.34
-9 2 20 105.45 13.24
-9 2 20 121.2 11.61
9 2 -20 116.59 13.35
-9 2 -21 21.08 4.9
9 2 21 30.4 6.46
9 2 21 25.84 6.47
-9 2 -21 25.37 6
-9 -2 -21 25.01 7.56
9 2 -21 20.4 5.14
9 2 -21 10.31 5.44
-9 2 -21 41.59 7.35
-9 2 21 21.99 6.72
-9 2 21 20.93 4.97
-9 2 -22 216.96 19.7
9 2 22 258.18 22.11
-9 -2 -22 214.32 22.59
9 2 -22 238.51 20.9
-9 2 -22 268.11 22.77
-9 2 22 212.86 22.07
-9 2 22 203.18 19.56
9 2 -22 198.8 21.31
-9 2 -22 209.81 20.2
-9 2 -23 5.54 3.58
9 2 23 6.31 4.89
-9 2 -23 5.54 4.08
-9 -2 -23 7.71 5.85
9 2 -23 6.86 3.77
-9 2 -23 10.03 5.08
-9 2 23 13.15 5.34
-9 2 23 9.46 3.88
9 2 -23 4.25 4.66
-9 2 -24 49.69 7.06
9 2 24 58.72 8.84
-9 2 -24 48.38 7.78
-9 -2 -24 53.84 9.61
9 2 -24 52.1 7.99
-9 2 -24 51.05 8.74
-9 2 24 59.79 9.89
9 2 -24 33.45 8.27
9 2 -25 -3.29 5.06
-9 2 -25 2.91 3.42
9 2 25 6.55 5.32
-9 -2 -25 -1.33 4.74
9 2 -25 0.91 3.34
-9 2 -25 1.15 3.97
-9 2 25 5.06 5.4
-9 2 -26 39.39 6.62
9 2 -26 45.74 8.54
9 2 26 48.72 8.19
-9 -2 -26 33.92 8.2
9 2 -26 40.85 7.15
-9 2 -26 39.08 7.95
-9 2 26 42.39 8.84
-9 2 -27 9.88 4.09
9 2 27 13.48 5.31
9 2 -27 12.45 5.54
-9 -2 -27 2.75 4.77
9 2 -27 2.87 4.12
-9 2 -27 8.43 4.7
-9 2 27 3.91 5.08
-9 2 -28 7.76 3.72
9 2 28 3.42 4.18
9 2 -28 -1.15 5.01
-9 -2 -28 -1.4 5.41
9 2 -28 1.98 3.52
-9 2 -28 3.67 5
-9 2 28 7.94 5.77
-9 2 -29 14.25 4.56
9 2 29 12.82 5.71
9 2 -29 3.51 4.58
-9 -2 -29 7.08 5.53
9 2 -29 9.06 4.95
-9 2 -29 7.47 4.74
-9 2 29 9.64 6.04
-9 2 -30 -1.61 3.13
9 2 -30 1.83 3.16
9 2 30 1.18 4.2
9 2 -30 4.16 4.03
-9 2 -30 1.27 4.65
9 2 -31 6.24 3.71
10 2 0 6.17 3.73
-10 2 0 10.25 3.68
-10 2 0 6.02 2.48
10 2 1 31.27 5.7
10 2 -1 25.75 5.19
-10 2 1 18.79 4.67
-10 2 -1 14.75 4.04
-10 2 1 18.99 4.51
-10 2 -1 15.43 3.45
-10 2 1 20.79 3.6
10 2 2 6.36 3.61
10 2 -2 1.5 2.83
-10 2 2 -0.73 2.69
-10 2 -2 5.86 2.96
-10 2 2 2.52 2.64
-10 2 -2 4.82 2.49
-10 2 2 5.67 2.51
10 2 3 8 3.85
10 2 -3 -0.74 2.81
-10 2 3 11.11 3.91
-10 2 -3 7.28 3.55
-10 2 3 5.03 2.92
-10 2 3 4.44 2.38
10 2 4 36.57 6.48
10 2 -4 29.5 5.91
-10 -2 -4 33.23 7.23
-10 2 4 37.33 6.25
-10 2 -4 39.11 6.06
-10 2 4 31.22 5.64
-10 2 4 38.06 4.93
10 2 5 -0.83 3.29
10 2 -5 2.19 3.56
-10 -2 -5 2.03 5.1
-10 2 5 3.92 3.69
-10 2 -5 4.71 3.23
-10 2 5 2.48 2.7
-10 2 5 2.04 2.25
10 2 6 33.66 6.7
10 2 -6 47.98 7.16
-10 -2 -6 49.2 8.5
-10 2 6 36.42 6.69
-10 2 -6 43.91 6.64
-10 2 6 34.11 5.81
-10 2 6 48.07 5.5
10 2 7 91.69 10.61
10 2 -7 61.31 9.04
-10 -2 -7 107.25 12.2
-10 2 7 88.88 10.41
-10 2 -7 61.6 8.83
-10 2 7 74.66 8.92
-10 2 7 88.51 8.24
10 2 8 9.5 4.07
10 2 -8 12.19 4.44
10 2 -8 8.62 4.5
-10 -2 -8 17.83 6.64
-10 2 8 14.3 4.97
-10 2 -8 5.55 3.42
-10 2 8 16.57 3.94
10 2 9 -0.88 3.31
10 2 -9 7.86 3.6
10 2 -9 2.89 3.93
-10 -2 -9 3.21 5.04
-10 2 9 0.85 3.87
-10 2 -9 -0.7 3.22
-10 2 9 3.72 3.31
10 2 10 -1.77 3.61
10 2 -10 1.43 2.7
10 2 -10 -0.97 3.67
-10 -2 -10 5.43 4.21
-10 2 10 -0.88 3.42
-10 2 -10 2.12 3.08
-10 2 10 3.72 2.7
10 2 11 3.62 3.6
10 2 -11 5.72 3.37
10 2 11 7.48 4.46
-10 -2 -11 8.76 5.16
10 2 -11 -0.98 4
-10 2 11 3.57 3.97
-10 2 -11 2.87 4.34
-10 2 -11 0.71 3.22
-10 2 11 1.87 3.1
10 2 12 20.11 5.7
10 2 -12 24.32 5.71
10 2 12 26.92 6.75
-10 -2 -12 38.87 8.35
10 2 -12 23.95 5.29
10 2 -12 32.63 6.78
-10 2 12 26.91 6.28
-10 2 -12 35.89 6.88
-10 2 -12 20.11 5.17
-10 2 12 22.01 4.9
10 2 13 44.72 8.27
10 2 13 71.93 10.05
-10 -2 -13 69.09 10.44
10 2 -13 51.53 7.53
-10 2 13 55.49 8.7
-10 2 -13 59.04 8.94
10 2 -13 60.72 9.15
-10 2 -13 49.78 7.39
-10 2 13 47.9 7.08
10 2 14 0.94 3.26
10 2 14 6.62 4.4
-10 -2 -14 6.86 5.58
10 2 -14 9.73 3.78
-10 2 -14 7.48 4.38
-10 2 14 -0.98 4.08
-10 2 -14 5.01 4.28
-10 2 -14 2.9 2.97
10 2 -14 10.06 4.74
-10 2 14 5.09 3.63
10 2 15 7.71 4.14
10 2 15 4.48 3.76
-10 -2 -15 2.34 4.91
-10 2 -15 0.83 3.73
10 2 -15 9.93 3.99
-10 2 15 5.94 4.34
-10 2 -15 10.23 4.39
-10 2 -15 5.87 3.89
-10 2 15 9.7 3.67
10 2 -15 14.23 5.37
10 2 16 0.97 3.88
10 2 16 1.13 4.04
-10 -2 -16 -1.18 4.47
-10 2 -16 3.35 4.52
10 2 -16 0.78 3.02
-10 2 16 2.06 3.88
-10 2 -16 6.23 4.33
-10 2 -16 -5.16 3.65
-10 2 16 -0.66 3.04
10 2 -16 5.13 5
10 2 17 15.87 5.41
10 2 17 16.18 5.95
-10 -2 -17 22.94 6.74
-10 2 -17 7.52 4.52
10 2 -17 8.71 4.05
-10 2 17 4.17 4.1
-10 2 -17 10.62 4.87
-10 2 -17 8.94 3.64
-10 2 17 9.91 4.01
10 2 -17 7.27 5.11
10 2 -18 10.51 5.6
10 2 18 11.66 5.46
10 2 18 16.06 5.43
-10 -2 -18 7.32 5.39
-10 2 -18 2.51 4.36
10 2 -18 12.14 4.58
-10 2 18 18.51 5.95
-10 2 -18 14.02 5.15
-10 2 -18 11.98 3.98
-10 2 18 21.62 4.89
10 2 -19 3.19 5.61
10 2 19 2.37 4.1
10 2 19 8.19 4.38
-10 2 -19 4.17 4.15
-10 -2 -19 14.95 6.38
10 2 -19 1.66 3.48
-10 2 19 -1.1 4.73
-10 2 -19 2.21 5.48
-10 2 -19 8.28 3.98
-10 2 19 14.48 4.35
10 2 20 19.31 6.04
10 2 20 8.29 4.98
10 2 -20 21.61 6.45
-10 2 -20 14.88 5.28
-10 -2 -20 8.82 6.09
10 2 -20 29.56 5.64
-10 2 20 13.44 5.45
-10 2 -20 22.43 6.46
-10 2 -20 22.8 5.06
-10 2 20 31.64 5.55
10 2 21 28.33 6.83
10 2 -21 37.18 7.79
-10 -2 -21 27.03 7.42
10 2 -21 29.45 6.24
-10 2 21 37.25 7.86
-10 2 -21 21.54 6.44
-10 2 -21 18.33 4.92
-10 2 21 31.79 5.69
10 2 22 39.6 7.45
10 2 -22 29.92 7.16
-10 -2 -22 36.49 8.53
10 2 -22 26.65 6.32
-10 2 22 27.15 7.13
-10 2 -22 35.7 7.41
-10 2 22 36.67 6.13
10 2 23 28.19 6.82
10 2 -23 20.19 6.14
-10 -2 -23 17.26 6.61
10 2 -23 29.83 6.23
-10 2 23 10.77 5.6
-10 2 -23 22.19 6.21
-10 2 23 13.85 4.56
10 2 24 12.07 5.31
10 2 -24 13.63 5.94
-10 -2 -24 13.43 6.13
10 2 -24 6.5 4.27
-10 2 24 8.5 5.23
-10 2 -24 5.93 4.77
-10 2 24 13.23 4.25
10 2 25 -3.36 4.35
-10 -2 -25 4.11 4.72
10 2 -25 1.15 5.02
10 2 -25 5.72 4.16
-10 2 25 16.36 6.13
-10 2 -25 3.61 4.55
10 2 26 -1.13 3.91
-10 -2 -26 4.16 5.52
10 2 -26 -1.17 4.87
10 2 -26 5.82 3.96
-10 2 26 1.28 4.95
-10 2 -26 6.13 4.62
10 2 27 11.47 5.31
-10 -2 -27 4.21 5
10 2 -27 2.99 3.77
-10 2 27 -2.58 4.75
-10 2 -27 11.18 5.07
10 2 -27 3.55 5.05
10 2 -28 1.03 3.66
-10 2 -28 11.35 5.39
11 2 0 90.14 10.58
-11 2 0 75.7 9.3
11 2 1 83.02 10.08
11 2 -1 74.33 9.81
-11 2 -1 96.45 9.83
-11 2 1 74.36 9.23
11 2 2 10.15 4.33
11 2 -2 0.81 3.53
-11 2 -2 2.7 2.9
-11 2 2 0.67 2.98
-11 2 2 9.01 2.75
11 2 3 86.58 11.19
11 2 -3 108.84 11.62
-11 2 3 108.37 11.55
-11 2 -3 101.03 10.79
-11 2 3 99.1 10.64
-11 2 3 94.6 9.43
11 2 4 13.06 4.84
11 2 -4 10.39 4.4
-11 2 4 16.19 5.01
-11 2 -4 15.26 4.33
-11 2 4 19.82 4.38
-11 2 4 15.98 3.48
11 2 5 29.81 6.27
11 2 -5 34.13 6.25
-11 2 5 27.92 6.31
-11 2 -5 25 5.21
-11 2 5 32.88 5.6
11 2 6 29.37 6.23
11 2 -6 25.2 5.56
-11 -2 -6 28.99 7.86
-11 2 6 29.55 6.18
-11 2 -6 31.73 5.61
-11 2 6 28.79 5.27
11 2 7 64.26 9.12
11 2 -7 48.53 8.02
-11 -2 -7 83.2 10.83
-11 2 7 50.3 8.35
-11 2 -7 71.37 8.37
-11 2 7 66.84 8.26
11 2 8 -2.74 4.06
11 2 -8 3.9 3.87
-11 -2 -8 -1.09 5.33
-11 2 8 13.15 4.93
-11 2 -8 4.31 3.38
-11 2 8 5.29 3.28
11 2 9 49.16 7.98
11 2 -9 58.57 7.85
-11 -2 -9 48.89 8.8
-11 2 9 46.93 7.77
-11 2 -9 43.17 6.78
-11 2 9 43.95 6.73
11 2 10 -0.94 3.33
11 2 -10 3.12 3.87
11 2 -10 2.1 3.96
-11 -2 -10 -1.12 5.45
-11 2 10 3.64 4.13
-11 2 -10 2.92 3.25
-11 2 10 4.67 3.41
11 2 -11 85.93 10.47
11 2 11 78.89 10.7
11 2 11 99.7 12.22
-11 -2 -11 115.39 13.27
-11 2 11 95.82 11.45
11 2 -11 99.25 11.93
-11 2 -11 82.6 10.18
-11 2 11 75.2 9.59
11 2 12 4.79 3.91
11 2 -12 18.75 4.99
11 2 12 4.66 4.72
11 2 -12 13.86 5.35
-11 -2 -12 19.69 7.48
-11 2 12 19 5.35
-11 2 -12 11.85 4.41
-11 2 12 13.54 4.39
11 2 13 13.64 4.85
11 2 -13 19.54 4.98
11 2 13 25.95 6.41
11 2 -13 23.64 6.4
-11 -2 -13 40.88 8.4
-11 2 13 28.45 6.43
-11 2 -13 23.77 5.11
-11 2 13 19.01 4.6
11 2 14 27.53 6.15
11 2 14 21.49 6.23
-11 -2 -14 28.44 7.63
11 2 -14 27.04 6.44
11 2 -14 22.71 5.36
-11 2 -14 27.79 6.06
-11 2 14 23.83 6.21
-11 2 -14 27.91 6.4
-11 2 -14 17.15 4.45
-11 2 14 15.89 4.6
11 2 15 30.09 6.51
11 2 15 42.31 8.07
-11 -2 -15 38.26 7.91
11 2 -15 36.2 6.39
-11 2 -15 24.38 6.16
11 2 -15 27.28 6.74
-11 2 15 34.17 7.33
-11 2 -15 28.25 6.65
-11 2 -15 35.56 6.09
-11 2 15 22.51 5.3
11 2 16 5.07 4.24
11 2 16 4.9 3.94
-11 -2 -16 12.19 6.05
-11 2 -16 1.74 3.97
11 2 -16 1.68 3.18
-11 2 16 3.13 3.95
11 2 -16 9.89 4.89
-11 2 -16 2.2 4.5
-11 2 -16 4.56 3.77
-11 2 16 6.35 3.67
11 2 17 1.03 4
11 2 17 -3.7 4.65
-11 -2 -17 4.92 5.13
11 2 -17 2.56 3.56
-11 2 17 2.11 4.51
-11 2 -17 1.12 3.44
-11 2 -17 0.77 3.13
11 2 -17 -1.11 4.62
-11 2 17 -0.72 2.8
11 2 18 1.25 4.02
11 2 18 -1.04 4.04
-11 -2 -18 5.05 5.26
11 2 -18 0.87 2.98
-11 2 18 -1.09 4.01
-11 2 -18 4.53 4.51
-11 2 -18 -1.54 3.14
-11 2 18 -1.47 2.93
11 2 -18 1.12 4.57
11 2 19 3.82 4.82
11 2 19 1.06 3.92
-11 -2 -19 7.64 5.33
11 2 -19 7.95 4.1
-11 2 19 6.64 5.32
-11 2 -19 3.47 4.73
-11 2 -19 6.97 4.09
-11 2 19 8.87 4.01
11 2 -19 2.26 4.41
11 2 20 38.87 8.42
11 2 20 29.02 6.55
-11 -2 -20 31.13 8.02
11 2 -20 29.81 6.06
-11 2 20 21.3 6.8
-11 2 -20 39.82 7.87
-11 2 -20 24.1 5.42
-11 2 20 29.38 5.92
11 2 -20 29.71 7.21
11 2 21 120.55 13.87
11 2 21 104.66 14.36
-11 -2 -21 132.41 15.34
11 2 -21 123.84 13.29
-11 2 -21 131.62 14.79
-11 2 21 130.15 14.57
-11 2 21 96.56 11.98
11 2 -21 92.33 13.3
11 2 -22 -2.34 5.09
11 2 22 8.83 4.61
-11 -2 -22 6.69 6.19
11 2 -22 0.94 3.35
-11 2 22 3.53 4.45
-11 2 -22 7.27 4.18
-11 2 22 9.32 4.32
11 2 -23 -1.18 4.93
11 2 23 -1.12 3.97
-11 -2 -23 16.22 6.13
11 2 -23 4.8 3.63
-11 2 23 8.33 5.08
-11 2 -23 6.19 4.55
-11 2 23 0.78 3.34
-11 -2 -24 4.14 5.2
11 2 -24 5.85 4.16
-11 2 -24 -1.26 4.32
-11 2 24 -0.79 3.35
11 2 -25 1.99 3.66
-11 2 -25 1.27 4.66
12 2 0 2.65 3.36
-12 2 0 8.44 3.72
12 2 1 1.77 3.44
12 2 -1 -3.5 3.56
-12 2 -1 1.41 3.31
-12 2 1 -0.7 2.78
12 2 2 6.29 3.75
12 2 -2 6.07 4.01
-12 2 -2 1.42 3.09
-12 2 2 0.7 2.86
12 2 3 21.93 5.53
12 2 -3 24.96 5.67
-12 2 -3 23.37 5
-12 2 3 22.26 4.92
12 2 4 34.89 6.93
12 2 -4 49.02 7.79
-12 2 -4 42.8 6.59
-12 2 4 33.22 6.06
12 2 5 20.46 5.56
12 2 -5 11.09 4.83
-12 2 5 13.21 4.91
-12 2 -5 19.98 4.6
-12 2 5 18.71 4.81
12 2 6 5.61 4.16
12 2 -6 -0.85 3.37
-12 2 6 2.67 3.45
-12 2 -6 3.61 3.21
-12 2 6 2.1 3.12
12 2 7 7.6 4.13
-12 2 7 9.01 4.74
-12 2 -7 5.78 3.55
-12 2 7 16.83 4.48
12 2 8 23.16 5.84
12 2 -8 22.82 5.44
-12 -2 -8 25.01 7.18
-12 2 8 23.64 5.81
-12 2 -8 18.33 4.74
-12 2 8 19.77 4.91
12 2 9 2.91 4.06
12 2 -9 6.76 3.84
-12 -2 -9 8.01 4.99
-12 2 9 0.93 3.63
-12 2 -9 8.08 3.88
-12 2 9 0.71 3.47
12 2 10 2.96 3.51
12 2 -10 1.69 3.18
12 2 10 2.48 4.28
-12 -2 -10 4.63 4.6
-12 2 10 0.94 3.46
-12 2 -10 -0.75 3.04
-12 2 10 -0.71 3.17
12 2 11 1.99 3.55
12 2 -11 0.84 3.53
12 2 11 7.48 4.97
-12 -2 -11 4.66 4.87
-12 2 11 0.97 4.14
-12 2 -11 8.22 3.94
-12 2 11 5.74 3.27
12 2 12 6.06 4.32
12 2 -12 2.53 3.46
12 2 -12 6.83 5.55
12 2 12 10.08 5.15
-12 -2 -12 10.66 5.48
-12 2 12 -0.98 3.71
-12 2 -12 9.11 3.53
-12 2 12 4.38 3.75
12 2 13 4.07 4.56
12 2 -13 9.3 4.55
12 2 13 11.39 5.54
12 2 -13 11.45 5.23
-12 -2 -13 9.67 5.51
-12 2 13 10.05 5.01
-12 2 -13 4.56 3.5
-12 2 13 8.79 3.5
12 2 14 7.24 4.02
12 2 14 2.56 4.97
12 2 -14 2.31 4.48
-12 -2 -14 4.87 5.09
-12 2 14 1.01 3.94
-12 2 -14 4.57 3.47
-12 2 14 5.22 3.39
12 2 15 1.04 4.04
12 2 15 9.07 5.28
12 2 -15 3.49 5.08
-12 -2 -15 -1.23 5.38
-12 2 15 16.73 5.81
-12 2 -15 3.86 3.51
-12 2 15 0.75 3.06
12 2 16 24.33 6.35
12 2 16 9.17 5.52
12 2 -16 9.39 5.17
-12 -2 -16 2.49 4.75
-12 2 16 12.67 5.28
-12 2 -16 6.19 4.02
-12 2 16 16.82 5.05
12 2 17 5.33 4.13
12 2 17 5.33 4.74
-12 -2 -17 7.58 5.73
12 2 -17 -1.18 4.7
12 2 -17 -3.64 3.89
-12 2 17 2.13 4.24
-12 2 -17 2.37 4.71
-12 2 17 8.57 4.1
12 2 18 8.03 5.21
12 2 18 9.68 4.99
-12 -2 -18 1.27 4.96
12 2 -18 6.48 4.38
12 2 -18 5.95 4.87
-12 2 18 3.3 4.4
-12 2 -18 11.98 6.04
-12 2 18 6.26 3.64
12 2 19 5.44 5
12 2 19 1.1 4.48
-12 -2 -19 3.89 4.63
12 2 -19 2.82 4.03
12 2 -19 9.57 5.33
-12 2 19 13.34 6.26
-12 2 -19 15.76 6.2
-12 2 19 -0.8 3.49
12 2 20 12.41 5.64
-12 -2 -20 15.72 6.81
12 2 -20 11.44 5.04
-12 2 -20 13.49 5.89
-12 2 20 0.81 3.57
12 2 21 12.53 6.45
12 2 -21 19.48 5.63
-12 2 -21 22.38 6.76
13 2 0 5.59 4.24
-13 2 0 2.92 3.19
13 2 1 17.87 5.37
13 2 -1 25.11 5.98
-13 2 -1 21.26 4.85
-13 2 1 19.71 4.74
13 2 2 9.51 4.62
13 2 -2 10.17 4.64
-13 2 -2 12.45 4.19
-13 2 2 9.45 3.68
13 2 3 4.77 3.64
13 2 -3 11 4.64
-13 2 -3 7.38 3.51
-13 2 3 8.74 3.92
13 2 4 26.07 6.24
13 2 -4 32.96 6.49
-13 2 -4 28.76 5.53
-13 2 4 27.2 5.59
13 2 5 7.76 3.91
13 2 -5 13.65 4.62
-13 2 -5 5.2 3.73
-13 2 5 11.05 4.14
13 2 6 -1.97 3.51
13 2 -6 4.53 4.11
-13 2 -6 3.71 2.96
-13 2 6 4.45 3.49
13 2 7 4 3.92
13 2 -7 7.25 4.59
-13 2 7 16.27 5.21
-13 2 -7 6.72 3.8
-13 2 7 8.2 4.07
13 2 8 35.17 7.5
13 2 -8 55.27 8.08
-13 2 8 55.02 8.31
-13 2 -8 49.33 7.23
-13 2 8 37.36 6.66
13 2 9 12.25 4.75
13 2 -9 13.57 4.81
-13 2 9 21.39 5.5
-13 2 -9 15.1 4.58
-13 2 9 13.56 4.52
13 2 10 13.34 5.2
13 2 -10 5.42 3.65
13 2 10 9.27 5.44
-13 -2 -10 10.73 6.12
-13 2 10 8.88 4.77
-13 2 -10 6.8 3.8
-13 2 10 12.09 4.14
13 2 11 17.69 5.51
13 2 -11 17.19 5.11
13 2 11 13.3 5.61
-13 -2 -11 27.6 7.07
-13 2 11 27.82 6.35
-13 2 -11 22.67 5.1
-13 2 11 19.21 4.86
13 2 12 9.42 4.45
13 2 -12 15.37 5.03
13 2 12 12.09 6.03
-13 -2 -12 14.57 6.8
-13 2 12 11.23 5.12
-13 2 -12 12.28 4.56
-13 2 12 10.02 4.09
13 2 -13 10.9 5.2
13 2 13 12.21 5.8
-13 -2 -13 24.43 6.99
-13 2 13 25.73 6.59
-13 2 -13 19.2 4.8
13 2 14 2.72 4.69
-13 -2 -14 1.24 5.06
-13 2 -14 2.3 3.35
13 2 15 6.88 5.07
-13 -2 -15 7.5 5.47
-13 2 -15 7.02 3.83
0 -3 0 2.6 3.33
0 3 0 3.85 2.6
0 -3 1 9.74 4.26
0 -3 -1 4.55 3.67
0 3 1 3.22 2.64
0 3 -1 5.59 3.05
0 3 2 8.96 3.81
0 -3 2 6.49 3.88
0 -3 -2 7.14 4.25
0 3 2 6.34 2.73
0 3 -2 10.81 3.52
0 3 -2 12.37 3.41
0 3 -3 55.97 6.1
0 3 3 52.06 7.37
0 -3 -3 68.16 7.64
0 -3 3 55.15 7.28
0 3 3 38.49 5.67
0 3 -3 45.03 6.26
0 3 -3 36.88 5.82
0 3 4 17.53 4.64
0 3 -4 12.68 3.26
0 -3 4 14.91 4.52
0 -3 -4 12.98 4.41
0 3 4 6.66 3.16
0 3 -4 13.46 3.68
0 3 -4 15.23 3.86
0 3 5 55.63 7.4
0 3 -5 43.46 5.89
0 -3 -5 60.3 7.29
0 3 5 42.98 5.99
0 3 -5 32.16 5.89
0 3 -5 49.81 6.47
0 3 6 20.47 4.82
0 3 -6 11.19 3.56
0 -3 -6 17.48 4.5
0 3 6 12.96 3.39
0 3 -6 6.03 3.28
0 3 -6 8.93 3.45
0 3 7 33.45 5.88
0 -3 -7 37.32 7.7
0 3 -7 24.32 4.63
0 -3 -7 33.63 5.68
0 3 7 31.49 4.66
0 3 -7 28.62 5.14
0 3 -7 23.89 4.81
0 3 8 12.16 4.35
0 -3 -8 5.38 4.81
0 3 -8 5.59 3.04
0 3 -8 8.06 3.3
0 3 -8 5.65 3.1
0 3 9 22.21 5.21
0 -3 -9 19.02 6.22
0 3 -9 37.5 4.95
0 3 -9 19.42 4.48
0 3 -9 31.74 5.21
0 3 10 3.33 3.65
0 -3 -10 6.86 4.58
0 3 -10 7.84 3.21
0 3 -10 5.1 3.61
0 3 -10 3.35 3.01
0 3 11 33.12 5.99
0 -3 -11 30.5 7.43
0 3 -11 36.4 5.18
0 3 -11 23.24 5.02
0 3 -11 32.99 5.72
0 3 12 6.09 4.31
0 -3 -12 1.4 3.74
0 3 -12 3.26 2.83
0 3 -12 3.26 3.13
0 3 -12 0.71 2.78
0 3 13 32.62 6.63
0 3 -13 44.89 5.89
0 -3 -13 33.92 8.23
0 3 -13 35.22 5.91
0 3 -13 40.99 6.35
0 3 14 7.23 3.95
0 3 -14 0.57 2.78
0 -3 -14 2.86 4.23
0 3 -14 3.36 3
0 3 -14 11.41 3.66
0 3 15 75.22 9.74
0 -3 -15 63.43 10.95
0 3 -15 59.32 8.18
0 3 -15 68.83 9.03
0 3 -15 75.11 8.18
0 3 16 6.6 4.06
0 3 -16 11.74 3.66
0 -3 -16 5.84 5.22
0 3 -16 9.02 3.69
0 3 -16 4.86 3.19
0 3 17 11.63 4.55
0 3 -17 9.02 3.44
0 -3 -17 13.3 5.64
0 3 -17 11.26 3.94
0 3 -17 13.46 4.5
0 3 18 -1 3.87
0 3 -18 3.04 2.96
0 -3 -18 2.98 4.4
0 3 -18 0.72 2.7
0 3 -18 4.38 3.4
0 3 19 9.13 4.45
0 3 -19 4.3 2.94
0 -3 -19 7.56 5.06
0 3 -19 5.82 3.15
0 3 -19 16.13 4.68
0 3 20 -2.09 4.06
0 3 -20 -1.26 2.68
0 -3 -20 -3.05 4.9
0 3 -20 -4.45 3.1
0 3 -20 2.8 3.33
0 3 21 11.91 5.12
0 3 -21 8.27 3.44
0 -3 -21 4.64 4.39
0 3 -21 8.29 3.77
0 3 -21 6.68 3.64
0 3 22 3.3 3.91
0 3 -22 -1.95 2.89
0 -3 -22 1.57 4.41
0 3 -22 -0.77 3.13
0 3 -22 -1.99 3.76
0 3 23 22.76 6.01
0 3 -23 21.16 4.61
0 -3 -23 17.43 6.63
0 3 -23 19.55 4.8
0 3 -23 22.4 5.71
0 3 24 2.36 4.34
0 3 -24 -2.7 2.69
0 -3 -24 -1.61 5.15
0 3 -24 -2.12 3.53
0 3 25 8.4 5.03
0 3 -25 8.22 3.74
0 -3 -25 11.39 6.49
0 3 -25 4.04 3.48
0 3 -25 7.67 4.28
0 3 26 1.25 4.16
0 3 -26 -1.4 2.99
0 -3 -26 -6.6 5.08
0 3 -26 -0.82 3.01
0 3 -26 -1.12 3.98
0 3 27 30.42 7.36
0 3 -27 20.44 5.08
0 -3 -27 43.44 9.1
0 3 -27 27.36 5.53
0 3 -27 18.43 6.16
0 3 28 3.97 5.27
0 3 -28 4.98 3.41
0 -3 -28 -1.68 4.74
0 3 -28 -0.84 3.25
0 3 -28 1.17 3.91
0 3 29 41.68 8.87
0 3 -29 37.01 6.06
0 -3 -29 23.87 7.93
0 3 -29 29.71 6.07
0 3 -29 28.91 7.4
0 3 30 7.05 5.46
0 3 -30 3.67 3.51
0 -3 -30 -1.73 4.34
0 3 -30 -2.57 3.66
0 3 -30 1.23 4.36
0 3 31 50.15 10.38
0 3 -31 58.97 7.74
0 3 -31 48.58 7.64
0 3 -31 40.01 8.51
0 3 32 -3.1 5.15
0 3 -32 2.25 3.66
0 3 32 1.71 6.46
0 3 -32 1.76 3.58
0 3 -32 1.27 4.07
0 3 33 -1.57 5.4
0 3 -33 1.53 3.33
0 3 33 -1.75 5.61
0 3 -33 7.08 3.86
0 3 -33 7.77 5.52
0 3 34 -1.65 6.38
0 3 -34 -2.68 3.38
0 3 35 25.01 8.32
-1 3 0 121.56 11.87
1 -3 0 174.47 13.59
-1 -3 0 128.01 12.36
1 3 0 109 11.84
-1 3 0 108.01 11.65
1 3 0 139.62 13.16
-1 3 -1 123.91 11.2
-1 3 1 112.01 10.92
1 -3 1 135.87 12.35
1 -3 -1 150.48 12.44
-1 -3 -1 129.88 11.68
-1 -3 1 104.15 11.16
1 3 1 124.66 11.41
1 3 -1 91.65 10.83
-1 3 1 107.46 10.94
-1 3 -1 97.58 10.78
-1 3 -1 97.98 10.65
1 3 -1 113.15 11.96
1 3 1 116.94 12.1
-1 3 -2 70.85 8.71
1 -3 2 116.22 10.58
1 -3 -2 111.91 10.47
-1 -3 -2 90.55 9.48
-1 -3 2 82.65 9.34
1 3 2 94.58 9.37
1 3 -2 87.94 9.28
-1 3 2 73.94 8.77
-1 3 -2 83.44 9.25
-1 3 -2 79.95 8.81
1 3 -2 84.55 9.88
1 3 2 73.96 9.62
1 3 3 112.02 11.34
-1 3 -3 104.21 10.16
1 -3 3 125.04 11.61
1 -3 -3 115.64 11.18
-1 -3 -3 111.55 10.6
-1 -3 3 105.66 10.5
1 3 -3 76.36 9.89
-1 3 3 97.65 10.09
-1 3 -3 89.94 10.11
-1 3 -3 93.66 9.99
1 3 4 44.77 7.22
-1 3 -4 47.29 6.28
1 -3 4 71.19 8.12
-1 -3 -4 57.58 7.08
1 -3 -4 59.38 7.34
1 3 -4 42.06 6.52
-1 3 4 40.47 5.95
-1 3 -4 40.45 6.23
-1 3 -4 39.95 5.98
-1 3 -5 70.25 8.16
1 3 5 63.57 8.9
1 -3 -5 65.64 10.96
1 -3 5 111.33 10.17
1 -3 -5 105.56 10.01
-1 -3 -5 79.75 8.74
-1 3 5 67.29 8.06
1 3 -5 69.52 8.54
-1 3 -5 79.55 8.65
1 3 -5 80.27 8.79
-1 3 -5 69.06 8.35
-1 3 5 68.77 9.4
-1 3 -6 62.42 7.17
1 3 6 63.82 8.18
1 -3 -6 63.69 10.14
1 -3 -6 87.3 9.02
1 -3 6 65.64 8.2
-1 3 6 45.87 6.54
-1 3 -6 54.08 7.06
1 3 -6 42.76 6.93
1 3 -6 72.76 7.84
-1 3 -6 49.4 7.1
-1 3 6 67.78 8.63
-1 3 7 19.55 5.28
1 3 7 26.68 5.74
1 -3 -7 34.83 7.5
1 3 -7 22.11 4.31
-1 3 -7 23.76 4.74
1 -3 7 30.1 5.91
1 -3 -7 40.92 6.19
1 3 -7 40.84 5.59
-1 3 -7 31.61 5.29
1 3 -7 20.15 4.59
-1 3 -7 22.97 4.66
1 3 8 76.49 9.22
1 -3 -8 43.31 9.46
1 -3 8 101.46 9.63
1 -3 -8 99.13 9.67
1 3 -8 62.33 8.08
-1 3 -8 53.16 7.64
1 3 -8 59.34 8.01
-1 3 -8 70.61 8.27
1 3 -8 74.27 7.6
-1 3 -8 59.66 7.71
-1 3 8 71.77 9.17
-1 3 9 62.53 8.95
1 3 9 59.66 8.77
1 -3 -9 72.44 11.34
1 -3 9 87.95 9.21
1 -3 -9 98.29 9.61
1 3 -9 81.05 8.75
-1 3 -9 48.66 7.57
1 3 -9 73.18 8.42
-1 3 -9 76.22 8.46
1 3 -9 68.32 7.61
-1 3 -9 58.13 7.91
-1 3 10 143.33 15.3
1 3 10 169.53 15.74
1 -3 -10 126.95 17.09
-1 -3 -10 108.84 16.47
1 -3 10 216.59 15.64
1 -3 -10 202.83 15.6
1 3 -10 156.29 14.44
-1 3 -10 142.22 14.25
1 3 -10 143.43 14.49
-1 3 -10 150.5 14.53
1 3 -10 151.77 13.65
-1 3 -10 126.67 13.73
-1 3 11 44.81 7.14
1 3 11 28.13 5.87
1 3 -11 32.93 5.12
1 -3 -11 22.34 7.17
-1 -3 -11 24.74 7.48
-1 3 -11 31.77 5.23
1 -3 11 56.8 6.88
1 -3 -11 51.9 6.74
1 3 -11 28.34 5.59
-1 3 -11 21.63 5.06
1 3 -11 28.46 5.57
-1 3 -11 22.53 5.28
-1 3 12 160.63 15.83
1 3 12 144.75 15.53
1 -3 -12 121.1 16.77
-1 -3 -12 101.27 16.26
1 -3 12 227.75 15.9
1 -3 -12 208.55 15.75
1 3 -12 154.29 14.61
-1 3 -12 142.85 14.3
-1 3 12 141.94 13.37
1 3 -12 172.08 15.28
-1 3 -12 110.6 14.08
1 3 -12 172.52 14.11
-1 3 -12 149.49 14.21
-1 3 13 245.55 20.92
1 3 13 235.96 20.84
1 -3 -13 185.38 22.35
-1 -3 -13 215.69 22.81
1 -3 13 304.41 20.52
1 -3 -13 271.7 20.16
1 3 -13 189.28 19.02
-1 3 -13 186.62 18.89
-1 3 13 230.96 18.41
1 3 -13 189.1 19.25
-1 3 -13 216.18 19.87
1 3 -13 190.89 18.33
-1 3 -13 217.53 19.05
-1 3 14 53.03 8.2
1 3 14 68.93 9.22
1 3 -14 45.61 6.68
1 -3 -14 43.18 9.9
-1 -3 -14 63.68 10.84
-1 3 -14 52.43 7.2
-1 3 14 38.52 8.21
1 -3 14 100.86 9.15
1 -3 -14 78.55 8.44
-1 3 -14 55.59 7.57
1 3 -14 48.5 7.36
-1 3 14 44.99 6.28
1 3 -14 67.14 8.32
-1 3 -14 54.89 8.08
-1 3 15 131.46 14.19
1 3 15 155.46 15
1 -3 -15 100.67 15.2
-1 -3 -15 101.43 14.95
-1 3 15 72.53 13.18
1 -3 15 187.36 14.05
1 -3 -15 155.73 13.52
1 3 -15 133.82 13.06
-1 3 -15 123.4 12.81
-1 3 15 140.77 11.84
1 3 -15 128.26 13.46
-1 3 -15 107.35 13.11
1 3 -15 124.82 12.15
-1 3 -15 127.57 12.55
-1 3 16 62.36 8.64
1 3 16 57.85 8.73
1 -3 -16 54.53 9.68
-1 -3 -16 37.55 8.79
-1 3 -16 47.73 6.76
-1 3 16 28.45 7.76
1 -3 -16 85.66 8.53
1 3 -16 40.65 6.72
-1 3 -16 43.07 6.79
1 3 -16 54.14 6.76
1 3 -16 62.35 8.06
-1 3 -16 40.47 7.15
-1 3 17 41.93 7.3
1 3 17 25.88 6.17
1 3 -17 37.6 5.32
1 -3 -17 20.92 6.97
-1 3 -17 27.86 5.25
-1 -3 -17 35 8.27
-1 3 17 14.72 6.32
1 3 -17 30.43 5.53
-1 3 -17 36.86 5.92
1 3 -17 25.68 5.62
-1 3 -17 23.34 5.51
-1 3 18 54.73 8.34
1 3 18 48.51 8.15
1 3 -18 38.56 6.14
-1 3 -18 50.12 6.72
1 -3 -18 34.75 8.44
-1 -3 -18 38.36 8.97
-1 3 18 29.28 7.73
1 3 -18 43.73 6.76
-1 3 -18 43.46 6.72
1 3 -18 48.14 7.21
-1 3 -18 47.05 7.61
-1 3 19 9.03 4.65
1 3 19 3.15 4.19
1 3 -19 4.11 2.84
-1 3 -19 3.94 3.22
1 -3 -19 4.6 5.11
-1 -3 -19 4.46 4.96
-1 3 19 4.84 4.94
1 3 -19 5.82 3.32
-1 3 -19 5.9 3.49
1 3 -19 7.9 3.84
-1 3 -19 2.78 3.61
-1 3 20 15.26 5.51
1 3 20 27.24 6.64
1 3 -20 18.66 4.11
-1 3 -20 13.96 3.94
1 -3 -20 17.1 6.4
-1 -3 -20 7.53 5.27
-1 3 20 12.49 6.15
1 3 -20 16.95 4.35
-1 3 -20 6.77 3.53
1 3 -20 8.19 4.07
-1 3 -20 8.72 4.49
-1 3 21 18.84 6.06
1 3 21 11.08 5.06
1 3 -21 14.1 3.78
-1 3 -21 20.77 4.61
1 -3 -21 3.14 5.07
-1 -3 -21 3.05 4.53
-1 3 21 7.73 5.64
1 3 -21 8.22 3.81
-1 3 -21 5.36 3.58
1 3 -21 6.5 4.33
-1 3 -21 -0.99 3.68
-1 3 22 65.72 9.62
1 3 22 57.62 9.54
-1 3 -22 55.34 7.51
1 -3 -22 47.79 10.09
-1 -3 -22 63.03 11.04
-1 3 22 33.16 8.6
1 3 -22 52.37 7.78
-1 3 -22 56.88 7.97
1 3 -22 72.17 7.86
1 3 -22 47.28 8
-1 3 -22 46.2 8.39
-1 3 23 27.29 6.69
1 3 23 37.22 8.1
1 3 -23 41.24 5.97
-1 3 -23 29.62 5.6
1 -3 -23 33.93 8.68
-1 -3 -23 31.12 8.15
-1 3 23 32.8 8.72
1 3 -23 26.24 5.74
-1 3 -23 34.88 6.24
1 3 -23 42.12 7.49
-1 3 -23 16.79 5.97
-1 3 24 28.22 7.2
1 3 24 25.64 6.51
1 3 -24 29.86 5.43
-1 3 -24 32.68 5.64
1 -3 -24 31.14 8.07
-1 -3 -24 22.06 7.25
-1 3 24 18.27 7.31
1 3 -24 25.12 5.51
-1 3 -24 22.5 5.3
1 3 -24 27.62 6.58
-1 3 -24 19.51 6.3
-1 3 25 35.03 7.52
1 3 25 24.28 6.91
1 3 -25 24.32 4.95
-1 3 -25 19.85 4.82
1 -3 -25 19.84 7.08
-1 -3 -25 15.95 6.7
-1 3 25 11.56 6.5
1 3 -25 21.5 5.16
-1 3 -25 27.67 5.7
1 3 -25 26.63 6.49
-1 3 -25 19.93 6.2
-1 3 26 30.76 6.95
1 3 26 14.29 6.47
1 3 -26 23.51 4.82
-1 3 -26 21.57 5.18
1 -3 -26 33.54 8.15
-1 -3 -26 9.65 5.52
-1 3 26 13.36 6.99
1 3 -26 22.66 5.22
-1 3 -26 9.09 4.25
1 3 -26 24.96 6.18
-1 3 -26 19.34 6.3
-1 3 27 33.13 7.83
1 3 27 28.65 8.13
1 3 -27 34.05 5.85
-1 3 -27 24.9 5.29
1 -3 -27 27.2 7.97
-1 -3 -27 35.83 9.04
-1 3 27 13.71 7.21
1 3 -27 31.96 6.09
-1 3 -27 26.77 5.98
1 3 -27 31.62 7.18
-1 3 -27 25.55 6.92
-1 3 28 29.3 7.23
1 3 28 30.05 7.78
1 3 -28 16.68 4.79
-1 3 -28 19.28 4.81
1 -3 -28 29.28 7.95
-1 3 28 15.55 7.21
1 3 -28 19.96 5.19
-1 3 -28 14.43 4.89
1 3 -28 23.27 6.39
-1 3 -28 29.68 7.09
-1 3 29 28.41 7.79
1 3 29 23.26 7.61
1 3 -29 16.83 4.91
-1 3 -29 33.96 6.04
1 -3 -29 27.93 8.38
-1 3 29 25.49 8.54
1 3 -29 29.4 5.83
-1 3 -29 27.57 5.82
1 3 -29 5.92 5.1
-1 3 -29 25.42 6.58
-1 3 30 9.43 6
1 3 30 9.16 6.52
1 3 -30 7.15 4.29
-1 3 -30 9.1 4.01
1 -3 -30 3.54 5.46
-1 3 30 -3.26 6.82
1 3 -30 8.5 4.23
-1 3 -30 4.37 3.5
1 3 -30 3.65 4.48
-1 3 -30 6.18 4.55
-1 3 31 36.66 8.92
1 3 31 63.59 11.41
1 3 -31 38.09 6.81
-1 3 -31 51.96 7.52
1 -3 -31 41.17 9.82
-1 3 31 23.39 9.59
1 3 -31 53.11 7.91
-1 3 -31 45.8 7.59
1 3 -31 48.26 9.11
-1 3 32 21.42 7.38
1 3 32 17.95 7.45
1 3 -32 25.6 5.55
-1 3 -32 38.04 6.4
1 -3 -32 18.03 7.19
-1 3 32 10.24 7.47
1 3 -32 19.85 5.36
-1 3 -32 24.07 5.74
1 3 -32 29.12 7.57
-1 3 33 1.49 4.6
1 3 33 6.62 6.9
1 3 -33 0.73 3.71
-1 3 -33 12.53 4.57
1 -3 -33 1.82 5.39
-1 3 33 6.98 6.01
-1 3 -33 4.49 3.76
1 3 -33 1.29 4.44
1 3 34 8.61 6.32
-1 3 34 -3.56 6.72
1 3 -34 7.85 5.21
2 3 0 10.84 3.73
-2 -3 0 8.92 5.2
2 -3 0 5.02 4.95
-2 -3 0 2.92 2.91
2 -3 0 2.96 3.47
-2 3 0 1.55 2.35
2 3 -1 96.69 9.47
2 3 1 69.67 8.69
-2 3 -1 74.93 8.22
-2 -3 1 68.66 10.79
-2 -3 -1 49.75 10.07
2 -3 -1 60.3 11.79
2 -3 1 53.59 11.31
2 -3 1 88.28 8.85
2 -3 -1 77.06 8.52
-2 -3 -1 63.23 8.04
-2 -3 1 73.55 8.31
2 3 -1 81.85 8.6
-2 3 1 77.66 8.07
-2 3 -1 68.07 7.9
2 3 -2 139.81 12.48
2 3 2 143.73 12.77
-2 3 -2 117.53 11.57
-2 -3 2 72.37 12.89
-2 -3 -2 91.96 13.57
2 -3 -2 78.7 14.48
2 -3 2 77.02 14.4
-2 -3 -2 125.45 12.06
2 -3 2 140.93 12.21
2 -3 -2 132.14 12.05
-2 -3 -2 127.22 11.84
-2 -3 2 101.42 11.32
2 3 -2 125.16 11.81
-2 3 2 127.3 11.35
-2 3 -2 130.51 11.61
2 3 -3 0.64 2.73
2 3 3 2.15 3.06
-2 -3 3 -1.27 4.37
-2 -3 -3 2.56 4.25
2 -3 -3 -2.58 3.63
2 -3 -3 -1.67 5.76
2 -3 3 1.67 5.15
-2 -3 -3 4.55 3.27
-2 3 -3 -0.57 3.12
-2 -3 -3 1.76 2.56
-2 -3 3 1.75 2.83
2 -3 3 -0.59 2.93
2 -3 -3 2.37 3.2
2 3 -3 -0.6 2.74
-2 3 3 -1.95 2.77
-2 3 -3 -1.63 2.64
2 3 4 30.93 5.39
-2 -3 4 10.13 4.98
-2 -3 -4 7.68 4.9
2 -3 -4 16.96 5.97
2 -3 -4 13.38 6.12
2 -3 4 11.71 6.47
-2 -3 -4 20.6 4.53
-2 3 -4 24.74 4.68
-2 -3 -4 23.52 4.54
-2 -3 4 22.66 4.37
2 -3 4 30.15 4.99
2 -3 -4 12.44 4.22
2 3 -4 18.96 4.24
-2 3 -4 24.96 4.63
2 3 5 35.22 5.7
-2 -3 -5 21.79 6.56
2 -3 -5 38.21 7.59
2 -3 -5 25.06 7.61
2 -3 5 20.05 7.32
-2 3 -5 18.03 4.24
-2 -3 -5 22.53 4.84
-2 -3 -5 20.6 4.47
-2 -3 5 20.32 4.45
2 -3 5 28.33 4.95
2 -3 -5 26.63 4.85
2 3 -5 17.38 4.31
-2 3 -5 19.14 4.25
-2 3 -5 25.17 4.54
-2 3 -6 57.56 6.76
2 3 6 55.51 7.3
-2 -3 -6 29.51 7.53
2 -3 -6 59.89 9.46
2 -3 -6 45.07 9.8
2 -3 6 25.04 8.98
-2 -3 -6 44.55 6.82
-2 -3 -6 45.37 6.29
-2 -3 6 44.07 6.29
2 -3 6 50.11 6.68
2 -3 -6 56.77 7.03
2 3 -6 59.15 7.07
-2 3 -6 44.29 6.27
-2 3 -6 55.7 6.77
2 3 7 4.71 3.7
2 -3 -7 2.69 3.79
2 -3 -7 3.33 5.55
2 -3 7 3.33 5.14
-2 3 -7 7.07 2.88
-2 -3 -7 1.44 3.2
-2 -3 -7 3.54 2.98
-2 -3 7 4.05 3.05
2 -3 7 6.48 3.52
2 -3 -7 1.77 2.93
2 3 -7 3.22 2.57
-2 3 -7 -0.59 2.4
-2 3 -7 3.09 2.76
-2 3 8 -2.55 3.47
2 3 8 -0.81 3.3
2 -3 -8 1.36 4.36
2 -3 -8 3.33 4.91
2 -3 8 -3.34 5.14
-2 3 -8 0.6 3.2
-2 -3 -8 3.7 3.16
-2 -3 -8 4.14 2.83
-2 -3 8 0.58 2.72
2 -3 8 4.11 3.26
2 -3 -8 3.54 3.28
2 3 -8 1.3 2.6
-2 3 -8 5.39 2.92
2 3 -8 2.01 2.92
-2 3 -8 -0.65 2.44
-2 3 9 4.29 3.9
2 3 9 3.34 3.17
2 -3 -9 5.48 4.06
2 -3 -9 4.99 5.55
2 -3 9 -1.66 5.35
-2 3 -9 4.23 3.28
-2 -3 -9 6.83 3.46
-2 -3 -9 5.32 3.04
-2 -3 9 2.88 3.01
2 -3 9 1.83 3.09
2 -3 -9 10.6 3.49
2 3 -9 1.98 3.34
-2 3 -9 9.14 2.99
2 3 -9 10.25 3.71
-2 3 -9 2 2.46
-2 3 10 9.51 4.38
2 3 10 5.95 3.59
2 -3 -10 4.17 3.75
2 -3 -10 14.95 6.79
2 -3 10 6.64 5.94
-2 3 -10 6.71 3.3
-2 -3 -10 3.9 3.3
-2 -3 -10 7.69 3.16
-2 -3 10 13.22 3.55
2 -3 10 15.86 4.2
2 -3 -10 9.99 3.74
2 3 -10 2.01 3.26
-2 3 -10 13.69 3.71
2 3 -10 9.75 3.71
-2 3 -10 4.88 3.03
-2 3 11 -4.37 3.65
2 3 11 5.28 3.67
2 3 -11 -0.46 2.32
2 -3 -11 1.4 4.13
2 -3 -11 -6.63 5.51
2 -3 11 1.66 5.7
-2 3 -11 1.23 2.85
-2 -3 -11 1.6 3.42
-2 -3 -11 2.36 2.78
-2 -3 11 1.72 2.5
2 -3 11 1.82 3.06
2 -3 -11 1.22 3.12
2 3 -11 -0.68 3.13
-2 3 -11 1.9 2.46
-2 3 11 2.88 2.37
2 3 -11 0.71 2.9
-2 3 -11 0.73 3.05
-2 3 12 12.43 4.72
2 3 12 8.06 4.04
2 3 -12 11.78 3.23
2 -3 -12 4.26 5.1
-2 3 -12 6.25 3.27
2 -3 -12 6.6 5.73
2 -3 12 8.26 5.92
-2 -3 -12 9.04 3.93
-2 -3 -12 8.87 3.43
-2 -3 12 9.74 3.33
2 -3 12 6.67 3.68
2 -3 -12 6.71 3.62
2 3 -12 7.52 3.45
-2 3 -12 11.02 3.57
-2 3 12 16.34 3.64
2 3 -12 12.35 3.99
-2 3 -12 9.78 3.96
-2 3 13 0.9 3.19
2 3 13 3.7 3.59
2 3 -13 0.49 2.41
2 -3 -13 -1.44 3.61
-2 3 -13 -2.55 3.16
2 -3 -13 8.23 6.04
2 -3 13 1.65 5.49
-2 -3 -13 6.71 3.5
-2 -3 -13 -1.18 2.57
-2 -3 13 4.57 2.97
2 -3 13 -0.63 3.14
2 -3 -13 6.08 3.67
2 3 -13 3.47 3.27
-2 3 -13 11.92 3.82
-2 3 13 3.37 2.64
2 3 -13 4.46 3.44
-2 3 -13 4.74 3.72
-2 3 14 12.74 4.73
2 3 14 11.33 4.37
2 3 -14 13.44 3.59
2 -3 -14 16.02 6
-2 -3 -14 11.17 5.34
-2 3 -14 11.64 3.83
2 -3 -14 3.28 5.72
2 -3 14 6.57 5.34
-2 -3 -14 11.19 4.42
-2 3 14 16.28 6.07
-2 -3 -14 12.37 3.62
2 -3 14 19.56 4.71
-2 -3 14 12.54 3.55
2 -3 -14 8.48 4.02
2 3 -14 7.68 3.93
-2 3 -14 12.17 3.9
2 3 -14 16.74 4.62
-2 3 14 14.46 3.43
-2 3 -14 12.18 4.42
-2 3 15 74.58 9.24
2 3 15 42.7 7.73
2 3 15 61.74 8.95
2 -3 -15 60.41 10.48
-2 -3 -15 47.96 9.37
-2 3 -15 57.8 7.49
2 -3 -15 27.78 9.54
-2 -3 -15 40.7 7.73
-2 3 15 60.04 9.53
2 -3 -15 81.57 8.49
-2 -3 -15 60.01 7.24
-2 -3 15 52.85 7.13
2 -3 15 56.55 7.71
2 3 -15 64.03 8.08
-2 3 -15 45.67 7.12
-2 3 15 74.23 7.01
2 3 -15 67.99 8.38
2 3 -15 54.33 6.73
-2 3 -15 52 8.12
-2 3 16 63.62 8.7
2 3 16 53.53 7.88
2 3 16 51.95 8.51
2 -3 -16 32.88 8.19
-2 -3 -16 38.46 8.85
-2 3 -16 59.08 7.32
-2 -3 -16 50.84 7.98
-2 3 16 38.46 8.62
2 -3 -16 63.61 7.78
-2 -3 -16 49.27 6.68
2 3 -16 47.85 7.13
-2 3 -16 49.5 7.3
-2 3 16 52.36 6.13
2 3 -16 56.64 6.69
2 3 -16 54.21 7.8
-2 3 -16 57.77 8.17
-2 3 17 115.33 12.63
2 3 17 118.32 13.18
2 3 17 97.23 11.79
-2 -3 -17 103.54 14.12
2 -3 -17 89.13 13.68
-2 -3 -17 83.5 11.55
-2 3 17 84.02 12.81
2 3 -17 103.75 11.3
-2 3 -17 104.55 11.29
-2 3 17 107.86 9.95
2 3 -17 104.58 10.5
2 3 -17 115.01 12.05
-2 3 -17 110.02 12.22
-2 3 -17 113.11 11.26
-2 3 18 21.25 5.58
2 3 18 8.13 4.64
2 3 18 18.39 5.77
2 3 -18 17.52 4.01
2 -3 -18 12.27 6.18
-2 -3 -18 15.98 6
-2 3 -18 18.26 4.28
-2 3 18 7.03 5.5
2 3 -18 13.79 4.24
-2 3 -18 10.3 4.2
2 3 -18 9.35 4.57
-2 3 -18 9.33 4.42
2 3 19 -0.93 4.49
-2 3 19 11.85 4.84
2 3 19 12.12 5.12
2 3 -19 16.87 3.82
2 -3 -19 15.58 6.52
-2 3 -19 5.48 3.54
-2 -3 -19 4.4 5.25
-2 3 19 -4.84 5.41
2 3 -19 16.94 4.71
-2 3 -19 8.25 3.75
2 3 -19 14.73 4.46
-2 3 -19 2.87 4.29
-2 3 20 16.17 5.25
2 3 20 8.05 4.79
2 3 -20 17.73 3.96
2 -3 -20 15.72 6.33
-2 3 -20 10.47 3.95
-2 -3 -20 14.82 5.83
-2 3 20 18.69 6.54
2 3 -20 13.35 4.48
-2 3 -20 11.43 4.02
2 3 -20 15.24 4.88
-2 3 -20 11.88 4.84
-2 3 21 1.02 4.46
2 3 21 4.68 4.66
2 3 -21 4.11 2.82
2 -3 -21 -1.6 4.49
-2 3 -21 1.41 3.08
-2 -3 -21 3 4.42
-2 3 21 -3.85 5.23
2 3 -21 6 3.72
-2 3 -21 5.43 3.66
2 3 -21 7.42 3.87
-2 3 -21 3.04 4.33
-2 3 22 3.15 4.17
2 3 22 3.68 4.76
2 3 -22 1.19 2.86
-2 3 -22 -0.71 2.98
2 -3 -22 3.24 4.99
-2 -3 -22 -3.02 3.56
-2 3 22 -1.32 5.51
2 3 -22 2.27 3.23
-2 3 -22 1.57 3.28
2 3 -22 -1.89 3.15
-2 3 -22 4.18 3.72
-2 3 23 -3.23 4.29
2 3 23 3.75 4.45
2 3 -23 5.51 3.44
-2 3 -23 -2.18 3.3
2 -3 -23 3.29 4.85
-2 -3 -23 1.53 4.51
-2 3 23 -1.36 5.8
2 3 -23 0.77 3.06
-2 3 -23 8.01 3.77
2 3 -23 1.96 3.79
-2 3 -23 7.49 4.26
-2 3 24 3.27 4.5
2 3 24 13.15 5.65
2 3 -24 10.66 3.64
-2 3 -24 13.16 4.22
2 -3 -24 8.31 4.95
-2 -3 -24 9.28 5.37
-2 3 24 5.59 5.6
2 3 -24 10.88 4.09
-2 3 -24 11.37 4.08
2 3 -24 9.12 4.29
-2 3 -24 9.87 4.93
-2 3 25 2.24 4.23
2 3 25 6.9 5.76
2 3 -25 -0.63 2.99
-2 3 -25 2.23 3.24
2 -3 -25 -1.69 4.5
-2 3 25 2.87 5.7
2 3 -25 0.79 2.89
-2 3 -25 -0.83 3.12
2 3 -25 -1.03 4
-2 3 -25 1.12 3.86
-2 3 26 2.31 4.82
2 3 26 5.62 5
2 3 -26 7.79 3.51
-2 3 -26 -2.24 3.32
2 -3 -26 -5.14 5.27
-2 3 26 -4.41 6.14
2 3 -26 1.6 3.25
-2 3 -26 7.56 3.81
2 3 -26 2.14 4.26
-2 3 -26 -1.15 4.08
-2 3 27 14.32 5.71
2 3 27 17.75 6.79
2 3 -27 18.33 4.32
-2 3 -27 21.08 5.12
2 -3 -27 26.05 7.64
-2 3 27 1.51 6.09
2 3 -27 12.97 4.68
-2 3 -27 8.53 4.22
2 3 -27 14.16 5.32
-2 3 28 9.66 5.3
2 3 28 12.04 6.31
2 3 -28 13.37 4.13
-2 3 -28 9.95 4.25
2 -3 -28 3.52 5.24
-2 3 28 6.19 6.19
2 3 -28 7.4 4.12
-2 3 -28 12.07 4.32
2 3 -28 6.79 4.55
-2 3 29 12.5 5.53
2 3 29 34.87 8.63
2 3 -29 10.1 4.09
-2 3 -29 15.48 4.67
2 -3 -29 10.72 6.02
-2 3 29 12.67 6.38
2 3 -29 14.13 4.89
-2 3 -29 11.37 4.58
2 3 -29 15.27 5.71
-2 3 30 10.36 6
2 3 30 14.5 6.58
2 3 -30 0.69 3.14
-2 3 -30 6.29 4.04
2 -3 -30 12.62 6.43
-2 3 30 6.49 7.07
2 3 -30 6.73 3.53
-2 3 -30 3.53 3.62
2 3 -30 4.77 4.39
-2 3 31 30.13 7.64
2 3 31 21.84 8.21
2 3 -31 23.13 5.25
-2 3 -31 33.34 6.09
2 -3 -31 23.75 7.96
-2 3 31 6.63 7.69
2 3 -31 15.94 6.1
2 3 32 11.94 6.08
2 3 -32 25.37 5.18
-2 3 -32 34.24 6.05
2 -3 -32 9.25 6.35
-2 3 32 16.94 7.84
2 3 -32 29.87 7.26
2 3 -33 20.81 5.16
2 3 33 35.33 9.61
-2 3 -33 29.88 5.82
2 -3 -33 13.1 7.3
-2 3 33 25.94 9.16
2 3 -33 38.26 8.07
2 3 34 -1.79 5.74
2 -3 -34 -1.89 5.83
3 3 0 8.63 3.66
-3 -3 0 5.15 5
3 -3 0 1.71 4.58
-3 -3 0 6.63 3.33
3 -3 0 3.99 3.19
-3 3 0 4.01 2.66
3 3 1 58.89 7.82
-3 -3 1 44.98 9.3
-3 -3 -1 52.87 9.6
3 -3 -1 53.08 9.52
3 -3 -1 59.87 11.38
3 -3 1 25.66 9
3 -3 1 72.4 7.81
3 -3 -1 84.99 8.15
-3 -3 -1 53.76 7.49
-3 -3 1 61.39 7.58
-3 3 1 60.66 7.08
-3 3 -1 63.44 7.06
3 3 2 155.2 13.6
-3 -3 -2 105.92 14.89
-3 -3 2 96.23 14.65
3 -3 -2 124.07 15.27
3 -3 -2 95.77 15.85
3 -3 2 80.38 15.03
-3 -3 -2 176.75 14.04
3 -3 2 135.03 12.54
3 -3 -2 145.45 12.77
-3 -3 -2 126.48 12.55
-3 -3 2 132.76 12.66
-3 3 -2 124.75 12.1
3 3 3 183.49 17.32
-3 3 -3 198.39 17.02
-3 -3 3 160.05 19.27
-3 -3 -3 124.21 18.5
3 -3 -3 180.96 19.93
3 -3 3 138.47 20.44
3 -3 -3 126.45 19.8
-3 -3 -3 262.47 18.52
3 -3 3 202.68 16.86
3 -3 -3 218.34 17.02
-3 -3 -3 180.67 16.72
-3 -3 3 186.49 16.7
-3 3 -3 187.82 16.43
3 3 4 146.72 13.21
-3 3 -4 111.97 11.91
-3 -3 -4 116.62 14.91
-3 -3 4 84.73 13.62
3 -3 -4 115.06 14.95
3 -3 -4 64.89 14.28
3 -3 4 80.26 14.76
-3 -3 -4 204.86 14.43
3 -3 4 126.28 11.86
3 -3 -4 143.05 12.25
-3 -3 -4 123.9 11.96
-3 -3 4 116.12 11.85
3 3 -4 106.76 11.78
-3 3 -4 117.24 11.53
3 3 5 23.66 5.22
-3 -3 5 5.13 5.44
-3 -3 -5 12.97 5.85
3 -3 -5 7.93 4.81
3 -3 -5 11.94 6.52
3 -3 5 3.43 5.99
-3 -3 -5 17.37 5.26
-3 3 -5 16.45 4.33
-3 -3 -5 12.16 3.73
-3 -3 5 14.33 3.92
3 -3 5 17.05 4.32
3 -3 -5 12.53 4.14
3 3 -5 18.54 4.14
-3 3 -5 14.01 3.73
-3 3 -6 64.44 7.91
3 3 6 50.62 7.8
-3 -3 6 35.81 8.76
-3 -3 -6 39.14 9.19
3 -3 -6 52.1 9.52
3 -3 -6 39.41 9.97
3 -3 6 34.28 9.38
-3 -3 -6 74.54 8.88
3 -3 6 62.99 7.27
3 -3 -6 52.92 7.1
-3 -3 -6 61.52 7.37
-3 -3 6 63.79 7.34
-3 3 -6 61.95 7.18
3 3 -6 49.81 7.12
3 3 7 25.02 5.22
-3 -3 7 8.94 5.65
-3 -3 -7 5.23 5.16
3 -3 -7 13.48 5.32
3 -3 -7 13.69 7.04
3 -3 7 5.13 6.53
-3 -3 -7 25.06 5.87
-3 3 -7 9.66 4.05
-3 -3 -7 15.86 3.85
-3 -3 7 10.71 3.54
3 -3 7 12.65 3.68
3 -3 -7 25.58 4.71
3 3 -7 10.47 3.82
-3 3 -7 16.46 3.87
3 3 8 21.76 5.45
-3 -3 8 14.01 6.45
-3 -3 -8 14.38 6.29
3 -3 -8 24.58 6.77
3 -3 -8 25.62 8.37
3 -3 8 20.5 8.09
-3 3 -8 20.12 4.77
-3 -3 -8 25.66 5.75
-3 -3 -8 25.64 4.72
-3 -3 8 26.42 4.65
3 -3 8 31.01 5.1
3 -3 -8 26.11 4.74
3 3 -8 23.88 5
-3 3 -8 32.48 4.98
-3 3 -8 21.62 4.64
3 3 9 17.94 4.83
-3 -3 9 6.36 4.96
-3 -3 -9 7.85 5.23
3 -3 -9 4.14 3.92
3 -3 -9 3.41 5.06
3 -3 9 20.46 7.45
-3 3 -9 8.56 3.88
-3 -3 -9 8.25 4.31
-3 -3 -9 14.66 3.88
-3 -3 9 6.45 2.95
3 -3 9 15.46 3.98
3 -3 -9 2.3 2.99
3 3 -9 7.39 3.47
-3 3 -9 5.55 3
-3 3 9 12.06 3.41
-3 3 -9 1.42 2.74
-3 3 -10 91.04 10.22
3 3 10 96.91 11.24
-3 -3 -10 105.99 13.64
-3 -3 10 73.74 11.82
3 -3 -10 68.33 11.81
3 -3 -10 66.33 12.89
3 -3 10 61.28 12.44
-3 -3 -10 96.24 11.05
3 -3 10 112.02 10.16
3 -3 -10 92.47 9.71
-3 -3 -10 80.71 9.51
-3 -3 10 97.67 9.85
3 3 -10 107.03 10.49
-3 3 -10 69.38 9.32
-3 3 10 101.66 9.52
-3 3 -10 88.96 10.39
-3 3 10 102.5 11.51
-3 3 11 44.89 8.17
3 3 11 51.75 8.21
-3 -3 11 57.1 9.7
-3 -3 -11 51.05 9.82
3 -3 -11 49.5 9.56
3 -3 -11 37.31 9.9
3 -3 11 42.62 10.06
-3 3 -11 55.75 7.51
-3 -3 -11 69.23 8.72
3 -3 11 64.94 7.38
-3 -3 11 54.86 6.86
-3 -3 -11 45.36 6.78
3 -3 -11 49.84 6.77
-3 3 -11 54.16 7.19
3 3 -11 38.21 6.81
-3 3 11 60.5 6.7
3 3 -11 52.41 7.34
-3 3 -11 41.69 6.96
-3 3 12 15.37 5.06
3 3 12 9.45 4.49
-3 -3 12 3.8 4.41
-3 -3 -12 1.31 4.56
3 -3 -12 8.59 5.44
3 -3 -12 11.89 6.95
3 -3 12 5.1 5.28
-3 3 -12 8.7 3.82
-3 -3 -12 7.99 4.51
-3 -3 -12 9.07 3.7
-3 -3 12 15.14 3.72
3 -3 12 8.75 3.87
3 -3 -12 11.43 3.54
3 3 -12 6.32 3.64
-3 3 -12 8.59 3.53
3 3 -12 12.76 4.32
-3 3 12 5.88 2.96
-3 3 -12 10.28 3.77
-3 3 13 47.49 7.81
3 3 13 42.45 7.61
-3 -3 13 41.7 8.75
-3 -3 -13 39.32 8.72
3 -3 -13 27.6 7.91
3 -3 -13 40.63 10.19
3 -3 13 45.76 10.31
-3 3 -13 51.98 7.13
-3 -3 -13 55.05 8.02
-3 -3 13 57.39 6.72
-3 -3 -13 36.3 5.98
3 -3 13 47.08 6.63
3 -3 -13 50.69 6.53
3 3 -13 59.79 7.46
-3 3 -13 43.19 6.63
3 3 -13 60.37 7.7
-3 3 13 37.57 5.65
-3 3 -13 38.27 6.78
-3 3 14 51.54 7.76
3 3 14 27.3 6.15
3 3 14 42.31 7.45
-3 -3 14 18.93 7.08
-3 -3 -14 39.27 8.42
3 -3 -14 36.72 8.39
3 -3 -14 25.3 8.9
3 -3 14 23.71 8.81
-3 3 -14 37.05 6.3
-3 -3 -14 49.9 7.92
-3 3 14 31.48 7.22
-3 -3 -14 49.57 6.46
-3 -3 14 33.54 5.6
3 -3 14 48.06 6.42
3 -3 -14 43.71 6.11
3 3 -14 41.68 6.48
-3 3 -14 35.88 6.08
3 3 -14 35.85 6.32
-3 3 14 31.93 5.11
-3 3 -14 40.63 7.02
-3 3 15 185.88 18.36
3 3 15 189.16 18.93
3 3 15 181.09 17.85
-3 -3 15 158.62 19.28
-3 -3 -15 129.45 18.82
3 -3 -15 137.25 19.36
3 -3 -15 134.37 20.05
3 -3 15 114.71 19.99
-3 -3 -15 190.39 18.67
-3 3 15 143.62 18.38
3 -3 15 218.15 17.24
3 -3 -15 216.49 17.12
-3 -3 -15 188.06 16.81
-3 -3 15 189.71 16.72
3 3 -15 211.46 17.73
-3 3 -15 182.43 17.18
3 3 -15 204.96 16.34
-3 3 15 212.62 16.25
3 3 -15 206.25 18.03
-3 3 -15 157.56 17.63
-3 3 -15 213.13 17.6
-3 3 16 74.79 10.02
3 3 16 72.43 9.69
3 3 16 81.67 10.73
3 -3 -16 45.45 10.53
3 -3 16 48.71 11.88
-3 -3 -16 92.29 11.19
-3 3 16 49.45 9.81
3 -3 -16 94.79 9.18
-3 -3 -16 85.45 8.86
3 3 -16 71.29 9
-3 3 -16 61.71 8.55
3 3 -16 66.43 7.86
-3 3 16 77.71 8.01
3 3 -16 79.75 9.77
-3 3 -16 71.67 9.04
-3 3 -16 72.08 9.71
-3 3 17 26.79 6.19
3 3 17 13.3 4.63
3 3 17 28.52 6.7
3 3 -17 23.51 4.3
3 -3 -17 15.31 6.41
-3 3 -17 18.31 4.91
-3 -3 -17 26.73 6.57
-3 3 17 15.86 5.97
3 3 -17 34.64 5.9
-3 3 -17 19.77 4.74
3 3 -17 19.05 5.46
-3 3 17 18.25 3.83
-3 3 -17 13.89 5.09
-3 3 18 193.06 17.63
3 3 18 158.31 16.83
3 3 18 161.29 17.82
3 -3 -18 152.44 19.18
-3 -3 -18 126.78 18.13
-3 -3 -18 175.38 17.54
-3 3 18 120.27 16.96
3 3 -18 197.86 16.55
-3 3 -18 158.47 15.83
3 3 -18 147.86 14.68
-3 3 18 211.44 14.96
3 3 -18 185.92 17.03
-3 3 -18 132.21 16.33
-3 3 -18 169 15.93
-3 3 19 44.07 7.58
3 3 19 21.87 6.05
3 3 19 22.33 6.61
3 3 -19 30.53 5.08
3 -3 -19 26.73 7.44
-3 -3 -19 28.74 7.53
-3 3 -19 31.08 5.92
-3 -3 -19 32.04 7.14
-3 3 19 15.63 6.13
3 3 -19 32.09 6.01
-3 3 -19 24.28 5.68
3 3 -19 28.8 6.13
-3 3 19 41.07 5
-3 3 -19 24.44 6.08
-3 3 20 7.99 4.38
3 3 20 0.98 4.2
3 3 20 3.71 4.44
3 3 -20 11.02 3.47
3 -3 -20 7.99 5.35
-3 -3 -20 4.36 4.32
-3 3 -20 10.93 3.98
-3 3 20 7.52 5.49
3 3 -20 9.76 4.04
-3 3 -20 8.48 3.6
3 3 -20 9.77 4.36
-3 3 20 6.34 2.84
-3 3 -20 8.02 4.31
-3 3 21 9.17 4.55
3 3 21 8.13 4.54
3 3 21 12.63 5.52
3 3 -21 3.96 2.96
3 -3 -21 1.62 4.11
-3 3 -21 8.89 3.92
-3 3 21 5.16 4.88
3 3 -21 2.28 3.2
-3 3 -21 1.57 2.99
3 3 -21 15.59 4.77
-3 3 -21 9.27 4.86
3 3 22 29.2 6.86
-3 3 22 42.7 7.45
3 3 22 25.23 7.2
3 3 -22 23.48 4.84
3 -3 -22 39.61 8.77
-3 3 -22 45.68 6.66
-3 3 22 19.86 7.18
3 3 -22 42.79 6.61
-3 3 -22 38.44 6.46
3 3 -22 44.48 7.34
-3 3 -22 27.44 6.54
3 3 23 22.46 6.63
-3 3 23 42.07 7.64
3 3 23 32.47 8.02
3 3 -23 31.72 5.34
3 -3 -23 30.07 8.31
-3 3 -23 40.08 6.31
-3 3 23 16.31 6.88
3 3 -23 30.85 6.16
-3 3 -23 26.09 5.83
3 3 -23 39.47 6.89
3 3 24 8.77 5.09
-3 3 24 15.08 5.61
3 3 24 18.55 7.15
3 3 -24 20.2 4.37
3 -3 -24 18.66 7.47
-3 3 -24 13.07 4.41
-3 3 24 13.96 6.77
3 3 -24 15.6 4.36
-3 3 -24 14.04 4.54
3 3 -24 14.92 5.27
3 3 25 13.47 6.32
-3 3 25 25.4 6.67
3 3 25 24.71 7.41
3 3 -25 26.79 5
-3 3 -25 27.89 5.86
3 -3 -25 13.78 6.73
-3 3 25 20.04 7.73
3 3 -25 29.88 5.73
-3 3 -25 23.51 5.51
3 3 -25 29.76 6.81
3 3 26 50.59 8.94
-3 3 26 62.28 9.65
3 3 26 24.54 8.17
3 3 -26 54.23 7.03
-3 3 -26 53.61 7.57
3 -3 -26 57.73 10.84
-3 3 26 27.88 9.18
3 3 -26 36.53 6.7
-3 3 -26 50.18 7.76
3 3 -26 45.9 8.07
3 3 27 15.33 6.1
-3 3 27 24.02 6.43
3 3 27 23.42 7.81
3 3 -27 15.1 4.44
-3 3 -27 31.56 6.17
3 -3 -27 30.18 8.83
-3 3 27 19.54 7.76
3 3 -27 31.36 5.86
-3 3 -27 31.96 6.11
3 3 -27 33.44 7.01
3 3 28 24.13 7.1
-3 3 28 38.88 8.25
3 3 28 30.99 8.47
3 3 -28 25.09 5.39
-3 3 -28 31.65 6.17
3 -3 -28 18.01 7.64
-3 3 28 23.08 8.14
3 3 -28 45.49 7.06
3 3 -28 26.79 6.77
3 3 29 40.71 9.06
-3 3 29 64.37 10.34
3 3 29 48.12 10.51
-3 3 -29 64.24 8.45
3 -3 -29 40.07 9.94
-3 3 29 29.91 10.24
3 3 -29 66.62 7.84
3 3 -29 54.4 9.32
3 3 30 76.84 12.72
3 3 30 103.27 15.28
3 -3 -30 90.55 14.53
-3 3 30 69.2 13.75
3 3 -30 94.45 10.39
3 3 -30 100.99 12.71
-3 3 -30 96.8 11.11
3 3 31 24.44 7.75
3 3 -31 17.52 4.5
3 3 31 15.74 7.54
-3 3 -31 12.21 4.65
3 -3 -31 9.36 5.63
-3 3 31 8.22 7.1
3 3 -31 23.83 6.62
3 3 32 3.94 5.22
3 3 -32 -0.68 3.07
3 3 32 3.62 6.23
-3 3 -32 1.65 3.52
3 -3 -32 13.28 7.35
-3 3 32 1.68 5.38
3 3 -32 2.47 4.25
3 3 33 10.7 6.34
3 3 -33 17.91 4.45
3 3 33 20.19 8.36
3 -3 -33 1.92 5.46
-3 3 33 17.13 7.5
3 3 -33 5.06 4.57
-4 -3 0 16.96 5.97
4 -3 0 18.71 6.04
4 -3 0 12.29 6.4
-4 -3 0 17.27 4.37
4 -3 0 27.97 4.79
-4 -3 1 74.22 12.01
-4 -3 -1 75.82 11.87
4 -3 -1 103.67 12.89
4 -3 -1 70.22 13.24
4 -3 1 54.42 12.38
4 -3 1 101.93 9.93
4 -3 -1 102.56 10.02
-4 -3 -1 108.32 10.3
-4 -3 1 92.54 9.95
-4 -3 2 27.29 7.45
-4 -3 -2 34.05 7.94
4 -3 -2 24.31 6.79
4 -3 -2 28.06 8.75
4 -3 2 29.84 8.62
-4 -3 -2 36.84 6.56
-4 3 2 32.68 5.17
-4 -3 -2 37.9 5.84
-4 -3 2 31.21 5.63
4 -3 2 36.67 5.8
4 -3 -2 40.79 5.81
-4 3 -2 35.78 5.24
4 3 3 95.1 11
-4 -3 -3 103.66 13.61
-4 -3 3 70.04 12.37
4 -3 -3 82.84 12.83
4 -3 -3 99.93 15.03
4 -3 3 77.2 13.94
-4 -3 -3 128.05 12.17
-4 3 3 109.56 10.26
4 -3 3 105.87 10.49
4 -3 -3 102.5 10.53
-4 -3 -3 102.34 10.67
-4 -3 3 99.77 10.6
-4 3 -3 104.25 10.23
4 3 4 65.97 8.76
-4 -3 4 46.58 9.67
-4 -3 -4 56.52 10.2
4 -3 -4 61.51 10.36
4 -3 -4 52.56 11.2
4 -3 4 43.82 11.09
-4 -3 -4 72.82 9.16
-4 3 4 78.3 7.91
4 -3 4 68 8.02
4 -3 -4 90.24 8.56
-4 -3 -4 65.14 8.21
-4 -3 4 68.42 8.15
-4 3 -4 64.26 7.66
4 3 5 16.69 4.93
-4 -3 5 3.87 4.82
-4 -3 -5 6.58 5.18
4 -3 -5 5.31 4.35
4 -3 -5 3.5 5.24
4 -3 5 10.51 5.9
-4 -3 -5 13.06 4.74
-4 3 -5 19.06 4.66
-4 3 5 14.56 3.66
-4 -3 -5 12.92 3.87
-4 -3 5 8.76 3.63
4 -3 5 24.97 4.41
4 -3 -5 13.97 3.77
-4 3 -5 14.8 3.8
4 3 6 34.17 6.42
-4 -3 6 39.94 8.06
-4 -3 -6 21.09 6.46
4 -3 -6 22.79 6.77
4 -3 -6 10.49 6.58
4 -3 6 28 8.51
-4 -3 -6 35.11 6.49
-4 3 -6 33.04 5.91
-4 -3 -6 29.77 5.24
-4 -3 6 33.74 5.5
4 -3 6 32.47 5.34
4 -3 -6 37.2 5.55
-4 3 -6 25.1 4.73
4 3 7 9.35 4.11
-4 -3 7 19.45 6.59
-4 -3 -7 9.24 5.83
4 -3 -7 14.89 5.6
4 -3 -7 13.97 6.83
4 -3 7 10.57 6.34
-4 -3 -7 16.99 4.82
-4 3 -7 6.26 4.17
-4 -3 -7 17.32 4.37
-4 -3 7 14.96 3.84
4 -3 7 9.84 3.66
4 -3 -7 14.51 4.01
4 3 -7 14.2 4.15
-4 3 -7 17.94 3.99
-4 3 7 12.56 3.55
4 3 8 6.09 3.95
-4 -3 8 2.59 4.46
-4 -3 -8 1.32 4.55
4 -3 -8 1.37 4.39
4 -3 -8 1.74 5.14
4 -3 8 10.55 6.64
-4 -3 -8 -3.46 3.85
-4 3 -8 0.7 2.86
-4 -3 -8 2.57 2.62
-4 -3 8 2.49 2.98
4 -3 8 2.89 2.72
4 -3 -8 5.8 3.01
4 3 -8 2.73 3.28
-4 3 -8 4.91 2.78
-4 3 8 -0.52 2.6
4 3 9 -1.82 3.53
-4 -3 9 5.16 4.59
-4 -3 -9 -1.33 4.74
4 -3 -9 4.17 4.28
4 -3 -9 -1.75 5.83
4 -3 9 5.27 6.24
-4 -3 -9 -0.88 3.93
-4 3 -9 -0.71 3.44
-4 -3 -9 -0.64 3.08
-4 -3 9 0.62 2.7
4 -3 9 1.16 2.69
4 -3 -9 1.16 2.72
4 3 -9 -6.21 3.58
-4 3 -9 3.77 2.74
-4 3 9 2.63 2.52
4 3 10 15.83 4.93
-4 -3 10 10.3 5.64
-4 -3 -10 12.01 5.84
4 -3 -10 16.88 6.14
4 -3 -10 12.24 7.08
4 -3 10 8.76 6.73
-4 3 -10 23.45 5.14
-4 -3 -10 20.89 5.39
-4 -3 -10 13.51 4.05
-4 -3 10 17.15 4.24
4 -3 10 23.22 4.51
4 -3 -10 17.9 4.25
4 3 -10 17.48 4.41
-4 3 -10 19.89 4.35
-4 3 10 25.33 4.29
4 3 11 16.59 5
-4 -3 11 19.26 6.18
-4 -3 -11 17.35 6.08
4 -3 -11 14.29 5.83
4 -3 -11 20.93 7.39
4 -3 11 12.23 6.54
-4 3 -11 17.29 4.84
-4 -3 -11 13.93 5.32
-4 -3 -11 21.25 4.41
-4 -3 11 12.22 3.83
4 -3 11 32.98 5.16
4 -3 -11 18.02 4.24
4 3 -11 16.97 4.46
-4 3 -11 24.29 4.88
-4 3 11 15.39 3.88
-4 3 -11 19.49 4.73
-4 3 12 50.24 8.22
4 3 12 54.06 7.68
4 3 12 64.84 9.09
-4 -3 12 34.82 8.61
-4 -3 -12 38.71 8.69
4 -3 -12 50.6 9.79
4 -3 -12 52.17 10.85
4 -3 12 43.87 10.13
-4 3 -12 59.05 7.93
-4 -3 -12 53.21 8.69
-4 -3 -12 62.47 7.41
-4 -3 12 44.47 6.7
4 -3 12 55.39 7.05
4 -3 -12 46.96 6.7
-4 3 -12 63.11 7.66
4 3 -12 48.27 7.34
-4 3 12 69.82 6.91
-4 3 -12 54.06 7.79
-4 3 -13 93.97 10.99
4 3 13 126.06 13.42
4 3 13 98.98 11.47
-4 -3 13 86.22 13.23
-4 -3 -13 94.78 13.56
4 -3 -13 101.39 14.22
4 -3 -13 60.66 13.17
4 -3 13 78.75 14.31
-4 -3 -13 101.26 12.39
-4 3 13 109.14 12.72
4 -3 13 129.59 11.23
4 -3 -13 122.02 11.15
-4 -3 -13 100.74 10.83
-4 -3 13 97.86 10.76
4 3 -13 96.15 11.01
-4 3 -13 110.81 11.32
-4 3 13 122.42 10.49
4 3 -13 103.22 11.68
-4 3 -13 96.48 11.52
-4 3 13 117.93 12.8
-4 3 14 12.24 5.22
4 3 14 7.41 4.09
4 3 14 6.44 4.35
-4 -3 14 11.55 5.29
-4 -3 -14 9.4 6.14
4 -3 -14 10.39 5.81
4 -3 -14 13.92 6.79
4 -3 14 5.23 6.06
-4 3 -14 18.18 4.78
-4 -3 -14 8.89 4.8
-4 3 14 16.21 5.39
-4 -3 -14 10.84 3.4
-4 -3 14 13.79 3.93
4 -3 14 12.74 3.83
4 -3 -14 8.07 3.46
4 3 -14 11.79 4.17
-4 3 -14 16.78 4.29
4 3 -14 9.68 4.2
-4 3 14 12.84 3.27
-4 3 -14 7.71 4.25
-4 3 15 74.09 9.51
4 3 15 60.86 8.32
4 3 15 53.8 8.96
-4 -3 15 59.11 9.89
-4 -3 -15 50.98 9.9
4 -3 -15 57.33 10.36
4 -3 -15 45.03 10.51
4 -3 15 31.26 8.94
-4 3 -15 45.75 7.48
-4 -3 -15 41.4 8.24
-4 3 15 62.61 9.31
4 -3 -15 66.11 7.55
-4 -3 -15 45.84 6.9
-4 -3 15 47.83 6.8
4 -3 15 59.95 7.23
-4 3 -15 61.25 7.77
4 3 -15 56.54 7.81
-4 3 15 59.18 6.58
4 3 -15 63.06 8.41
-4 3 -15 45.99 7.79
-4 3 16 4.81 4.1
4 3 16 -0.88 3.32
4 3 16 1.16 3.99
-4 -3 16 2.56 4.7
4 -3 -16 -1.53 4.71
4 -3 16 -1.74 5.78
-4 3 -16 1.49 3.44
-4 -3 -16 2.07 3.67
-4 3 16 -1.09 4
-4 -3 -16 -0.63 2.63
4 -3 -16 3.46 2.95
4 3 -16 -0.75 3.33
-4 3 -16 0.73 2.74
4 3 -16 1.67 3.4
-4 3 16 1.37 2.3
-4 3 17 19.38 5.35
4 3 17 22.57 5.45
4 3 17 20.12 6.2
4 -3 -17 27.94 7.31
-4 3 -17 14.26 4.83
-4 -3 -17 15.75 5.13
-4 3 17 11.24 5.38
4 3 -17 15.84 4.61
-4 3 -17 24.5 5.13
4 3 -17 25.5 5.57
-4 3 17 20.21 3.78
-4 3 18 135.32 14.17
4 3 18 121.25 13.45
4 3 18 114.75 14.75
4 -3 -18 127.89 16.35
-4 -3 -18 115.08 14.03
-4 3 18 103.15 14.21
4 3 -18 109.85 12.55
-4 3 -18 116.82 12.71
4 3 -18 110.56 13.03
-4 3 18 129.95 11.29
-4 3 -18 129.61 12.9
-4 3 19 14.84 4.95
4 3 19 10.61 4.67
4 3 19 10.19 5.24
4 -3 -19 6.4 4.33
-4 3 -19 8.46 4.11
-4 -3 -19 10.94 5.11
-4 3 19 18.07 6.01
4 3 -19 2.29 3.79
-4 3 -19 9.28 3.96
4 3 -19 5.28 3.98
-4 3 19 17.41 3.47
-4 3 20 13.03 4.8
4 3 20 4.94 4.03
4 3 20 6.72 5.22
4 3 -20 3.12 2.62
4 -3 -20 1.63 4.34
-4 3 -20 3.08 3.29
-4 -3 -20 -1.12 3.98
-4 3 20 1.24 4.41
4 3 -20 -0.77 3.86
-4 3 -20 1.57 2.8
4 3 -20 4.5 3.93
-4 3 20 3.98 2.53
-4 3 21 1.01 3.91
4 3 21 -4.05 4.59
4 3 21 5.49 5.18
4 3 -21 4.28 2.69
4 -3 -21 1.65 4.41
-4 3 -21 3.1 3.51
-4 -3 -21 -1.14 4.05
-4 3 21 1.27 4.37
4 3 -21 -5.4 3.88
-4 3 -21 2.4 3.1
4 3 -21 1.85 3.29
-4 3 21 0.88 2.14
-4 3 22 5.14 4.09
4 3 22 1.05 4.28
4 3 22 13.07 6.58
4 3 -22 -1.1 2.4
4 -3 -22 -1.68 4.49
-4 3 -22 0.78 3.33
-4 -3 -22 1.16 4.13
-4 3 22 1.3 5.18
4 3 -22 -1.56 3.47
-4 3 -22 2.43 3.23
4 3 -22 0.94 3.54
-4 3 22 0.88 2.25
-4 3 23 13.62 5.37
4 3 23 17.22 5.99
4 3 23 19.25 7.11
4 3 -23 24.42 4.61
4 -3 -23 25.56 7.85
-4 3 -23 22.16 5.4
-4 3 23 26.71 7.07
4 3 -23 17.21 4.97
-4 3 -23 18.19 4.86
4 3 -23 14.5 5.06
-4 3 24 23.51 6.34
4 3 24 18.71 5.82
4 3 24 6.19 5.87
4 3 -24 25.64 4.77
4 -3 -24 12.12 6.88
-4 3 -24 18.35 4.89
-4 3 24 22.27 6.94
4 3 -24 22.75 5.16
4 3 -24 35.86 6.68
-4 3 25 1.08 4.18
4 3 25 3.38 4.48
4 3 -25 0.58 2.75
4 3 25 3.16 4.86
4 -3 -25 3.52 5.64
-4 3 -25 1.61 3.5
-4 3 25 -5.7 5.23
4 3 -25 -1.58 3.29
4 3 -25 4.04 3.81
4 3 26 -1.15 5.01
-4 3 26 -2.2 4.8
4 3 -26 1.77 2.96
4 3 26 -1.61 5.72
4 -3 -26 -1.79 5.27
-4 3 -26 3.26 3.77
-4 3 26 1.46 5.35
4 3 -26 -0.8 3.25
4 3 -26 -1.04 3.93
4 3 27 2.35 4.69
4 3 -27 9.65 3.62
4 3 27 3.34 5.77
4 -3 -27 14.52 6.67
-4 3 -27 5.74 4.02
-4 3 27 2.98 4.98
4 3 -27 4.29 4.18
4 3 28 -2.44 4.85
4 3 -28 1.85 2.97
4 3 28 1.7 6.05
-4 3 -28 13.13 4.45
4 -3 -28 -1.84 4.64
-4 3 28 4.58 5.92
4 3 -28 8.7 4.65
4 3 29 1.24 5.67
4 3 -29 14.93 3.99
4 3 29 19.37 7.85
-4 3 -29 3.33 3.74
4 -3 -29 7.48 6.02
-4 3 29 1.56 5.57
4 3 -29 7.86 4.61
4 3 30 -5.08 6.08
4 3 -30 -1.27 2.83
4 3 30 -1.79 5.74
-4 3 -30 2.5 3.92
4 -3 -30 3.78 5.05
-4 3 30 3.18 6.17
4 3 -30 2.32 3.99
4 3 31 -1.29 5.15
4 3 -31 1.3 3.11
4 3 31 3.67 6.32
-4 3 -31 5.05 4.24
4 -3 -31 -3.84 5.66
-4 3 31 1.62 5.4
4 3 -31 1.17 4.17
4 3 32 -3.95 6.31
4 3 -32 0.66 3.14
4 3 32 -3.73 6.64
-4 3 -32 -0.84 3.52
4 -3 -32 -1.94 4.89
-4 3 32 -3.31 5.89
4 3 -32 -1.21 4.32
-5 -3 0 13.11 6.84
5 -3 0 11.22 5.02
5 -3 0 3.62 7.23
-5 3 0 15.02 3.82
-5 -3 0 10.74 3.91
5 -3 0 8.95 3.65
-5 -3 1 57.54 10.01
-5 -3 -1 55.16 10.04
5 -3 -1 60.64 10.17
5 -3 1 49.19 9.39
5 -3 -1 48.78 11.11
5 -3 1 63.28 12.01
-5 3 1 69.43 7.67
-5 -3 1 65.62 8.03
5 -3 1 56.1 7.44
5 -3 -1 57.18 7.42
-5 -3 -1 49.79 7.36
-5 -3 2 123.98 15.54
-5 -3 -2 110.55 14.96
5 -3 -2 84.49 13.69
5 -3 -2 83.08 15.48
5 -3 2 108.46 16.93
-5 3 2 117.01 11.85
-5 -3 -2 110.59 12.32
-5 -3 2 116.9 12.44
5 -3 2 150.91 12.9
5 -3 -2 142.11 12.71
-5 -3 3 170.51 20.89
-5 -3 -3 218.9 22.01
5 -3 -3 178.91 20.91
5 -3 3 173.38 22.63
5 -3 -3 120.95 21.04
-5 -3 -3 315.98 21.29
-5 3 3 229.88 18.43
-5 -3 -3 210.76 18.81
-5 -3 3 201.92 18.59
5 -3 3 242.6 18.76
5 -3 -3 189.15 18.08
-5 -3 4 35.06 8.64
-5 -3 -4 36.98 8.77
5 -3 -4 34.07 8.14
5 -3 -4 45.1 10.29
5 -3 4 28.88 9.38
-5 3 4 47.6 6.45
-5 -3 -4 46.03 6.9
-5 -3 4 46.51 6.73
5 -3 4 50.03 6.74
5 -3 -4 44.74 6.54
-5 3 -4 40.47 6.05
-5 -3 5 167.16 20.8
-5 -3 -5 195.81 21.62
5 -3 -5 200.14 21.61
5 -3 -5 169.34 22.77
5 -3 5 151.53 22.21
-5 -3 -5 254.65 20.71
-5 3 5 224.37 18.33
-5 -3 -5 204.86 18.81
-5 -3 5 230.23 19.05
5 -3 5 226.68 18.73
5 -3 -5 216.31 18.53
-5 3 -5 202.01 18.2
-5 3 5 211.54 18.15
5 3 6 12.23 4.58
-5 -3 6 9.05 5.44
-5 -3 -6 11.93 6.49
5 -3 -6 4.04 5.53
5 -3 -6 18 8.03
5 -3 6 5.41 5.6
-5 -3 -6 18.14 5.69
-5 3 -6 10.3 4.68
-5 3 6 7.63 3.18
-5 -3 -6 11.55 4.16
-5 -3 6 5.92 3.63
5 -3 6 10.69 4.02
5 -3 -6 17.27 4.29
-5 3 -6 6.5 3.14
-5 3 6 10.87 3.66
5 3 7 72.01 9.8
-5 -3 7 67.06 11.05
-5 -3 -7 62.35 10.79
5 -3 -7 63.99 10.87
5 -3 -7 55.68 11.87
5 -3 7 68.37 12.62
-5 -3 -7 66.27 9.71
-5 3 -7 75.05 9.34
-5 3 7 101.56 8.94
-5 -3 -7 68.07 8.72
-5 -3 7 69.55 8.72
5 -3 7 74.13 8.64
5 -3 -7 85.62 8.95
-5 3 -7 63.62 8.2
-5 3 7 88.3 8.59
5 3 8 10.41 4.41
-5 -3 8 7.86 5.74
-5 -3 -8 9.3 6.05
5 -3 -8 1.38 4.29
5 -3 -8 7.17 6.4
5 -3 8 -1.81 7.24
-5 -3 -8 9.35 5.42
-5 3 -8 7.5 4.41
-5 -3 -8 13.56 4.26
-5 -3 8 3.27 3.24
5 -3 8 17.76 4.19
5 -3 -8 16.03 4.03
-5 3 -8 8.05 3.12
-5 3 8 4.93 3.17
-5 3 -9 189.4 15.62
5 3 9 162.4 16.22
-5 -3 9 118.92 16.21
-5 -3 -9 115.13 16.38
5 -3 -9 123.36 16.66
5 -3 -9 127.05 18.32
5 -3 9 97.78 17.16
-5 -3 -9 160.63 16.14
-5 -3 -9 135.09 14.03
-5 -3 9 144.21 14.17
5 -3 9 186.06 14.6
5 -3 -9 165.96 14.26
5 3 -9 155.61 14.54
-5 3 -9 110.44 13.35
-5 3 9 173.62 13.88
-5 3 -10 205.77 17.02
5 3 10 154.07 17.52
-5 -3 10 149.88 18.5
-5 -3 -10 151.76 18.86
5 -3 -10 153.2 19.03
5 -3 -10 88.3 18.35
5 -3 10 130.12 19.66
-5 -3 -10 215.29 18.72
-5 -3 -10 155.69 16.02
-5 -3 10 161.4 15.97
5 -3 10 186.24 16.06
5 -3 -10 173.87 15.91
5 3 -10 209.66 16.97
-5 3 -10 176.84 16.15
-5 3 10 211.38 15.81
-5 3 -11 79.8 9.37
5 3 11 76.83 10.45
5 3 11 69.18 8.84
-5 -3 11 57.18 10.02
-5 -3 -11 51.53 10.08
5 -3 -11 41.83 9.78
5 -3 -11 41.33 11.13
5 -3 11 59.5 11.94
-5 -3 -11 81.27 10.53
-5 -3 -11 68.02 8.68
5 -3 11 74.39 8.13
5 -3 -11 80.25 8.29
-5 -3 11 47.1 7.69
-5 3 -11 60.66 8.03
5 3 -11 64.71 8.42
-5 3 11 64.07 7.51
5 3 12 12.73 4.49
5 3 12 14.45 5.47
-5 -3 12 23.32 6.93
-5 -3 -12 16.27 6.72
5 -3 -12 7.29 5.18
5 -3 -12 16.12 7.58
5 -3 12 23.36 8.25
-5 3 -12 25.46 5.5
-5 -3 -12 26.3 6.48
-5 -3 -12 21.77 4.93
-5 -3 12 18.65 4.35
5 -3 12 13.06 3.94
5 -3 -12 25.03 4.7
5 3 -12 16.91 4.92
-5 3 -12 13.65 4.08
-5 3 12 17.77 3.96
5 3 13 17.3 4.8
5 3 13 14.8 6.16
-5 -3 13 14.42 5.69
-5 -3 -13 9.49 5.87
5 -3 -13 5.93 4.69
5 -3 -13 8.93 6.03
5 -3 13 9.03 6.51
-5 3 -13 8.47 3.77
-5 -3 -13 24.59 6.13
-5 3 13 10.77 5.11
-5 -3 -13 22.32 4.74
-5 -3 13 10.9 3.75
5 -3 13 19.12 4.34
5 -3 -13 26.14 4.87
5 3 -13 11.87 4.73
-5 3 -13 14.66 4.01
-5 3 13 16.4 3.71
-5 3 14 15.48 5.44
5 3 14 5.06 4.15
5 3 14 18.64 5.98
-5 -3 14 13.07 6.48
-5 -3 -14 17.87 6.58
5 -3 -14 6.01 4.59
5 -3 -14 19.72 8.06
5 -3 14 19.79 7.77
-5 3 -14 19.48 5.37
-5 -3 -14 20.96 6.02
-5 3 14 17.45 5.61
-5 -3 -14 17.59 4.46
-5 -3 14 14.06 4.16
5 -3 14 22.61 4.62
5 -3 -14 21.32 4.6
5 3 -14 24.17 5.17
-5 3 -14 19.89 4.59
-5 3 14 19.51 4.07
-5 3 15 41.78 7.66
5 3 15 33.98 6.46
5 3 15 30.83 7.62
-5 -3 15 19.54 7.11
-5 -3 -15 24.73 8.13
5 -3 -15 39.73 8.85
5 -3 -15 23.21 8.91
5 -3 15 25.11 8.95
-5 3 -15 30.47 6.52
-5 -3 -15 53.59 8.63
-5 3 15 22.14 6.37
-5 -3 -15 37.17 6.12
-5 -3 15 34.66 5.69
5 -3 -15 49.52 6.27
5 3 -15 36.6 6.35
-5 3 -15 39.22 6.1
5 3 -15 30.6 6.46
-5 3 15 41.62 5.53
-5 3 16 64.42 9.34
5 3 16 65.07 8.84
5 3 16 55.48 9.6
-5 -3 16 43.19 9.61
5 -3 -16 49.77 10.57
5 -3 16 26.99 9.86
-5 3 -16 63.57 8.4
-5 -3 -16 85.86 10.94
-5 3 16 48.7 8.89
5 -3 -16 70.55 7.83
-5 -3 -16 70.2 8.27
5 3 -16 59.93 8.32
-5 3 -16 55.64 7.81
-5 3 16 59.72 6.89
5 3 -16 47.36 8.05
5 3 17 170.78 15.61
5 3 17 120.3 16.11
5 -3 -17 105.65 16.07
-5 -3 -17 142.11 15.87
-5 3 17 103.29 14.8
5 3 -17 118.65 13.58
-5 3 -17 125.97 13.62
5 3 -17 164.18 15.11
-5 3 17 139.64 12.51
-5 3 -17 163.35 14.65
-5 3 17 140.65 15.22
-5 3 18 10.94 4.82
5 3 18 12.27 4.96
5 3 18 19.13 6.97
5 -3 -18 16.04 6.48
-5 3 -18 15.19 5.06
-5 -3 -18 28.36 6.94
-5 3 18 11.64 5.3
5 3 -18 10.14 4.37
-5 3 -18 13.86 4.48
5 3 -18 15.98 4.87
-5 3 18 25.77 4.12
-5 3 19 14.07 5.29
5 3 19 5.79 4.47
5 3 19 12.56 6.27
5 -3 -19 21.22 7.17
-5 3 -19 17.72 5.04
-5 -3 -19 12.67 5.77
-5 3 19 11.93 5.49
5 3 -19 9.4 4.04
5 3 -19 18.07 5.34
-5 3 19 11.15 3.43
-5 3 20 70.76 9.39
5 3 20 58.04 8.87
5 3 20 43.87 9.83
5 -3 -20 29.8 8.47
-5 3 -20 60.12 8.44
-5 -3 -20 48.3 9.13
-5 3 20 52.25 9.49
5 3 -20 58.01 8
-5 3 20 55.79 6.53
5 3 -20 60.68 8.73
-5 3 21 21.37 5.87
5 3 21 7.16 4.46
5 3 21 14.93 6.63
5 -3 -21 20.21 7.45
-5 3 -21 22.71 5.26
-5 -3 -21 20.35 6.34
-5 3 21 7.64 5.23
5 3 -21 26.1 5.6
5 3 -21 22.37 5.71
-5 3 21 20.86 3.91
-5 3 22 25.74 7.4
5 3 22 44.93 8.05
5 3 22 40.41 9.49
5 -3 -22 39.4 9.32
-5 3 -22 59.98 7.83
-5 -3 -22 46.44 8.67
-5 3 22 28.71 8.03
5 3 -22 41.17 7.11
5 3 -22 28.53 6.87
-5 3 23 18.82 5.56
5 3 23 14.09 5.17
5 3 23 11.1 6.36
5 -3 -23 17.42 6.81
-5 3 -23 13.21 5
-5 -3 -23 13.66 6.01
-5 3 23 9.34 6.11
5 3 -23 8.73 4.81
5 3 -23 3.9 4.66
-5 3 24 56.36 8.8
5 3 24 46.47 8.67
5 3 24 38.8 9.8
5 -3 -24 53.05 10.38
-5 3 -24 43.1 7.47
-5 -3 -24 44.2 8.98
-5 3 24 43.71 9.46
5 3 -24 49.29 7.5
5 3 -24 42.44 7.88
5 3 25 15.81 5.92
5 3 -25 26.44 4.69
5 3 25 21.81 8.2
-5 3 -25 24.34 5.63
-5 -3 -25 24.39 6.95
-5 3 25 25.14 7.73
5 3 -25 20.3 5.87
5 3 26 5.76 4.62
5 3 -26 1.71 2.93
5 3 26 17.09 7.47
-5 3 -26 19.43 5.24
-5 3 26 17.12 6.24
5 3 -26 9.38 4.58
5 3 27 17.63 6.46
5 3 -27 9.95 3.82
5 3 27 14.05 7.08
-5 3 -27 18.69 5.57
-5 3 27 14.82 7.31
5 3 -27 31.69 6.61
-5 3 -28 1.74 3.72
5 3 28 -1.2 5.33
5 3 -28 4.19 3.06
5 3 28 -5.36 6.55
-5 3 -28 7.73 4.46
-5 3 28 1.51 5.38
5 3 -28 1.09 3.86
-5 3 -29 6.21 4.12
5 3 29 8.68 5.75
5 3 -29 6.66 3.47
5 3 29 3.64 6.06
-5 3 -29 3.45 3.93
-5 3 29 1.54 5.15
5 3 -29 6.69 4.45
-5 3 -30 10.86 4.87
5 3 30 2.53 4.94
5 3 -30 9.91 3.83
5 3 30 1.86 6.21
-5 3 -30 6.89 4.44
-5 3 30 14.17 6.59
5 3 -30 14.67 5.71
5 3 31 45.02 9.31
5 3 -31 39.23 6.34
-5 3 31 32.09 9.68
5 3 -31 40.65 8.18
5 3 -32 29.91 7.23
-6 -3 0 1.33 4.1
6 -3 0 -1.89 5.57
-6 3 0 5.12 3.24
-6 -3 0 7.81 3.65
6 -3 0 6.78 3.21
-6 -3 1 13.23 5.59
-6 -3 -1 11.96 5.36
6 -3 -1 7.55 5.88
6 -3 1 3.77 5.64
-6 3 -1 12.97 3.8
-6 3 1 13.89 3.71
-6 -3 -1 9.26 3.75
-6 -3 1 11.34 3.99
6 -3 1 15.4 3.98
6 -3 -1 19.1 4.2
-6 -3 2 6.6 5.63
-6 -3 -2 1.33 4.43
6 -3 -2 2.56 4.41
6 -3 -2 1.89 5.81
6 -3 2 5.66 6.05
-6 3 -2 1.31 2.86
-6 3 2 0.62 2.71
-6 -3 -2 2.14 2.91
-6 -3 2 2.83 2.81
6 -3 2 -1.85 2.74
6 -3 -2 4.31 2.9
-6 -3 3 17.11 6.64
-6 -3 -3 22.67 6.62
6 -3 -3 28.52 7.04
6 -3 -3 13.19 7.51
6 -3 3 13.2 7.7
-6 -3 -3 27 6.33
-6 3 3 25.91 4.72
-6 -3 -3 32.18 5.56
-6 -3 3 31.5 5.31
6 -3 3 23.38 4.93
6 -3 -3 19.7 4.55
-6 3 3 23.51 4.46
-6 -3 4 74.84 11.28
-6 -3 -4 84.19 12.03
6 -3 -4 76.13 11.39
6 -3 -4 71.53 13.58
6 -3 4 62.2 12.18
-6 -3 -4 103.03 11.26
-6 3 4 71.46 8.63
-6 -3 -4 81 9.41
6 -3 4 89.11 9.07
6 -3 -4 63.4 8.4
-6 -3 4 62.12 8.64
-6 3 4 83.65 8.67
-6 -3 5 1.31 4.54
-6 -3 -5 14.73 5.97
6 -3 -5 2.67 4.31
6 -3 -5 3.76 6.5
6 -3 5 7.53 6.51
-6 -3 -5 9.48 4.87
-6 3 5 5.36 3.08
-6 -3 -5 12.92 3.92
-6 -3 5 5.57 3.59
6 -3 5 6.14 3.58
6 -3 -5 8.61 3.7
-6 3 5 9.57 3.36
-6 -3 6 2.61 4.06
-6 -3 -6 13.4 6.22
6 -3 -6 10.82 4.99
6 -3 -6 11.26 6.49
6 -3 6 5.64 6.05
-6 -3 -6 12.53 5.31
-6 3 6 5.85 2.76
-6 -3 -6 7.86 3.69
-6 -3 6 4.16 3.19
6 -3 6 7.36 3.27
6 -3 -6 16.58 4.19
-6 3 6 5.47 2.89
-6 -3 7 1.32 4.74
-6 -3 -7 10.74 5.76
6 -3 -7 12.33 5.88
6 -3 -7 7.5 7.1
6 -3 7 7.49 6.48
-6 -3 -7 15.77 5.51
-6 3 -7 0.79 4.21
-6 3 7 16.05 3.83
-6 -3 -7 2.86 3.12
-6 -3 7 15.22 4.04
6 -3 7 11.63 3.71
6 -3 -7 14.11 3.87
-6 3 -7 11.69 3.61
-6 3 7 6.05 3.12
-6 -3 8 7.9 5.3
-6 -3 -8 10.9 5.34
6 -3 -8 12.55 5.6
6 -3 -8 9.35 6.5
6 -3 8 14.96 7.29
-6 -3 -8 11.99 5.24
-6 3 -8 16.74 4.93
-6 3 8 6.74 3.1
-6 -3 -8 10.03 4.21
-6 -3 8 13.1 3.87
6 -3 8 13.44 3.69
6 -3 -8 7.96 3.41
-6 3 -8 15.78 4.05
-6 3 8 12.31 3.4
6 3 9 3.27 4.55
-6 -3 9 3.94 4.37
-6 -3 -9 1.36 4.37
6 -3 -9 -1.41 4.87
6 -3 -9 1.86 5.24
6 -3 9 5.6 6.21
-6 -3 -9 -1.01 4.49
-6 3 -9 -0.8 3.79
-6 -3 -9 3.59 3.44
-6 -3 9 4.13 3.24
6 -3 9 2.46 2.89
6 -3 -9 4.28 3.17
-6 3 -9 -2.58 2.81
-6 3 9 4.17 2.54
6 3 10 65.27 8.58
6 3 10 53.36 9.67
-6 -3 10 58.9 10.24
-6 -3 -10 57.31 10.45
6 -3 -10 60.01 10.38
6 -3 -10 61.26 12.04
6 -3 10 61.46 12.41
-6 -3 -10 72.72 10.01
-6 3 -10 74.58 9.39
-6 -3 10 71.64 8.4
6 -3 10 75.33 8.4
6 -3 -10 64.65 7.96
-6 -3 -10 48.1 7.81
-6 3 -10 58.83 7.89
-6 3 10 82.38 7.95
6 3 11 81.76 9.29
6 3 11 65.42 10.14
-6 -3 11 65.26 10.89
-6 -3 -11 66.87 10.71
6 -3 -11 36.35 8.8
6 -3 -11 48.13 10.92
6 -3 11 55.73 11.79
-6 -3 -11 73.2 9.97
-6 3 -11 61.9 8.72
-6 -3 11 63.22 8.06
6 -3 11 66.56 7.87
-6 -3 -11 51 7.62
6 3 -11 48.1 7.89
6 -3 -11 55.15 7.4
-6 3 11 67.89 7.34
6 3 12 22.49 5.17
6 3 12 32.92 7.64
-6 -3 12 13.27 5.71
-6 -3 -12 20.47 6.58
6 -3 -12 23.57 6.57
6 -3 -12 5.54 6.3
6 -3 12 13.12 6.81
-6 -3 -12 24.66 6.69
-6 3 -12 11.46 4.98
-6 -3 -12 20.84 4.74
-6 -3 12 27.77 4.91
6 -3 12 17.04 4.29
6 3 -12 19.7 5.15
6 -3 -12 26.89 5.06
-6 3 12 18.17 3.94
6 3 13 10.2 4.34
6 3 13 -1.28 4.27
-6 -3 13 1.32 4.85
-6 -3 -13 1.36 4.54
6 -3 -13 1.5 5.17
6 -3 -13 3.68 5.42
6 -3 13 -1.87 6.64
-6 -3 -13 1.08 4.09
-6 3 -13 0.82 3.87
-6 3 13 1 3.76
-6 -3 -13 1.43 3.05
-6 -3 13 3.38 3.18
6 -3 13 3.07 3.37
6 -3 -13 2.44 3.02
6 3 -13 -0.76 4.13
-6 3 13 -0.5 2.33
6 3 14 0.88 3.4
6 3 14 2.63 4.37
-6 -3 14 -1.32 5.5
-6 -3 -14 2.78 4.95
6 -3 -14 4.58 4.9
6 -3 -14 9.26 7.37
6 -3 14 1.86 5.97
-6 3 -14 2.49 4.31
-6 -3 -14 6.63 4.62
-6 3 14 12.25 5.37
-6 -3 -14 2.14 3.31
-6 -3 14 2.68 3.21
6 -3 14 4.9 3.45
6 -3 -14 7.89 3.25
6 3 -14 0.77 3.29
-6 3 14 2.49 2.71
6 3 15 62.54 9.1
6 3 15 65.83 11.05
-6 -3 15 49.86 9.92
-6 -3 -15 55.58 10.45
6 -3 -15 72.78 11.74
6 -3 -15 46.09 11.15
6 -3 15 44.49 11.2
-6 3 -15 71.2 9.25
-6 -3 -15 68.92 10.63
-6 3 15 66.88 9.82
-6 -3 -15 75.01 8.71
6 -3 -15 67.94 8.05
6 3 -15 68.07 8.88
-6 3 15 70.65 7.59
-6 3 16 21.01 6.02
6 3 16 19.34 5.6
6 3 16 19.25 6.98
-6 -3 16 27.97 7.27
6 -3 -16 17.35 6.72
-6 3 -16 34.8 6.47
-6 -3 -16 28.61 7.25
-6 3 16 21.84 6.3
-6 -3 -16 26.38 5.32
6 -3 -16 23.77 4.97
6 3 -16 33.91 6.02
6 3 -16 27.72 6.16
-6 3 16 42.73 5.21
-6 3 17 6.02 4.62
6 3 17 13.16 5.22
6 3 17 12.91 6.04
6 -3 -17 6.41 5.2
-6 3 -17 11.63 4.91
-6 -3 -17 5.85 4.72
-6 3 17 13.42 5.33
6 3 -17 12.71 4.43
6 3 -17 9.96 4.56
-6 3 17 17.61 3.55
-6 3 18 7.06 4.49
6 3 18 1.94 3.67
6 3 18 2.93 5.22
6 -3 -18 1.63 4.11
-6 3 -18 -1.68 3.74
-6 -3 -18 5.92 4.35
-6 3 18 -2.34 5.09
6 3 -18 -0.8 3.56
6 3 -18 1.83 3.36
-6 3 18 13.11 3.24
-6 3 19 -1.01 4.33
6 3 19 1.98 3.64
6 3 19 1.53 5.08
6 -3 -19 8.3 5.53
-6 3 -19 3.37 3.61
-6 -3 -19 4.84 4.57
-6 3 19 4.78 5.1
6 3 -19 1.6 3.92
6 3 -19 5.57 4.05
-6 3 19 7.72 2.98
-6 3 -20 9.53 3.79
-6 3 20 12.27 5.22
6 3 20 10.09 4.99
6 3 20 18.69 7.12
6 -3 -20 6.75 5.48
-6 3 -20 10.18 4.49
-6 -3 -20 17.16 5.83
-6 3 20 9.77 5.28
6 3 -20 8.08 4.68
6 3 -20 14.1 5.02
-6 3 20 18.93 3.91
-6 3 -21 -2.25 3.66
-6 3 21 1.03 4
6 3 21 4.16 4.44
6 3 21 -4.77 5.83
6 -3 -21 3.43 5.06
-6 3 -21 4.29 3.89
-6 -3 -21 -1.25 4.85
-6 3 21 3.75 4.97
6 3 -21 4.86 3.88
6 3 -21 -4.77 5.37
-6 3 -22 8.48 4.26
6 3 22 9.55 5.16
6 3 22 24.58 7.48
-6 3 -22 12.09 4.63
-6 -3 -22 6.35 5.25
-6 3 22 16.93 6.51
6 3 -22 18.42 5.53
-6 3 -23 3.16 3.72
6 3 23 4.32 5.09
6 3 23 6.68 6.48
6 3 -23 4.93 4.39
-6 3 -23 3.44 3.98
-6 -3 -23 3.89 5.29
-6 3 23 -1.33 4.88
6 3 -23 0.99 3.83
-6 3 -24 10.5 4.61
6 3 24 17.85 5.63
6 3 24 10.22 6.86
-6 3 -24 15.54 5.09
-6 -3 -24 10.53 5.83
6 3 -24 17.24 5.94
-6 3 24 16.3 6.36
6 3 -24 19.97 5.58
-6 3 -25 1.64 3.45
6 3 -25 5.17 4.33
6 3 25 2.27 4.06
6 3 25 5.23 6.01
-6 3 -25 9.6 4.47
-6 -3 -25 9.35 5.71
-6 3 25 11.09 5.92
6 3 -25 4.08 4.37
-6 3 -26 41.17 7.34
6 3 26 50.94 9.14
6 3 26 33.73 9.93
-6 3 -26 58.6 8.34
6 3 -26 43.27 8.55
-6 -3 -26 49.03 9.6
-6 3 26 38.19 9
6 3 -26 56.52 8.84
-6 3 -27 6.01 4.14
6 3 27 4.72 5.16
6 3 27 9.04 7.21
-6 3 -27 10.54 4.65
-6 -3 -27 -1.38 5.65
-6 3 27 5.77 6.17
6 3 -27 10.73 5.08
6 3 -27 9.52 4.64
-6 3 -28 3.51 3.58
6 3 28 1.2 4.66
6 3 28 5.54 6.77
-6 3 -28 3.55 4.11
-6 -3 -28 2.8 5.44
6 3 -28 1.09 4.57
-6 3 28 4.41 5.7
6 3 -28 14.11 5.38
-6 3 -29 2.66 3.44
6 3 29 2.47 4.54
-6 3 -29 -2.67 4.11
-6 -3 -29 -2.85 5.22
6 3 -29 -1.11 4.32
-6 3 29 1.53 5.44
6 3 -29 3.34 4.2
6 3 -30 5.62 4.49
-7 -3 0 10.91 5.31
-7 3 0 6.08 3.43
-7 -3 0 6.03 3.39
7 -3 0 9.71 3.54
-7 3 0 4.58 3.06
-7 -3 1 57.15 9.65
-7 -3 -1 49.2 9.14
-7 3 -1 45.89 6.73
-7 3 1 40.92 6.52
-7 -3 -1 46.89 7.14
-7 -3 1 35.36 6.45
7 -3 1 49.2 6.71
7 -3 -1 47.93 6.78
-7 3 1 51.14 6.52
-7 -3 2 10.98 5.74
-7 -3 -2 17.81 6.22
-7 3 -2 1.39 2.86
-7 3 2 7.25 3.24
-7 -3 -2 10.61 3.83
-7 -3 2 3 3.01
7 -3 2 7.76 3.57
7 -3 -2 6.47 3.48
-7 3 2 2.3 2.88
-7 -3 3 -1.37 4.39
-7 -3 -3 5.49 5.03
-7 3 -3 0.7 2.71
-7 3 3 1.95 2.65
-7 -3 -3 0.76 3.17
-7 -3 3 2.24 3.19
7 -3 3 2.59 2.93
7 -3 -3 6.47 3.16
-7 3 3 0.58 2.73
-7 -3 4 5.46 5.01
-7 -3 -4 2.78 4.63
-7 -3 -4 1.01 4.2
-7 3 -4 1.42 2.96
-7 3 4 0.64 2.79
-7 -3 -4 6.85 3.52
-7 -3 4 3.73 3.39
7 -3 4 1.94 3.15
7 -3 -4 6.47 3.46
-7 3 4 1.69 2.61
-7 -3 5 36.77 8.28
-7 -3 -5 40.37 8.27
-7 -3 -5 33.36 7.4
-7 3 -5 33.61 5.88
-7 3 5 31.29 5.45
-7 -3 -5 28.22 5.75
-7 -3 5 34.23 5.98
7 -3 5 27.74 5.34
7 -3 -5 37.49 5.79
-7 3 5 29.58 5.18
-7 -3 6 131.74 15.21
-7 -3 -6 118.53 14.7
7 -3 -6 82.85 13.1
-7 -3 -6 121.7 13.78
-7 3 6 96.42 10.88
-7 -3 -6 111.51 11.81
-7 -3 6 97.14 11.33
7 -3 6 121.26 11.66
7 -3 -6 94.24 11.02
-7 3 6 109.63 10.72
-7 -3 7 52.79 9.97
-7 -3 -7 65.6 10.6
7 -3 -7 34.43 8.76
-7 -3 -7 66.55 10.07
-7 3 7 61.6 7.46
7 -3 7 63.11 7.69
7 -3 -7 62.52 7.8
-7 -3 -7 59.68 8.17
-7 -3 7 45.1 7.37
-7 3 7 56.37 7.06
-7 -3 8 6.75 5.23
-7 -3 -8 1.4 4.81
7 -3 -8 -1.4 3.94
-7 -3 -8 -2.12 4.53
-7 3 8 1.2 2.76
-7 -3 -8 -1.53 2.89
-7 -3 8 3.65 3.5
7 -3 8 -0.64 3.02
7 -3 -8 0.64 2.98
-7 3 8 2.16 2.88
7 3 9 2.45 3.49
-7 -3 9 17.49 6.22
-7 -3 -9 2.8 5.28
7 -3 -9 1.42 4.19
7 -3 9 -1.97 5.56
-7 -3 -9 8.61 5.75
-7 3 -9 0.85 4.15
-7 3 9 4.12 2.57
-7 -3 -9 0.77 3.48
-7 -3 9 -0.73 2.83
7 -3 9 5.13 3.52
7 -3 -9 6.43 3.49
-7 3 9 4.24 3.02
7 3 10 71.47 9.82
-7 -3 10 96.31 13.23
-7 -3 -10 90.91 12.85
7 -3 -10 79.56 12.36
7 -3 -10 62.86 12.96
7 -3 10 55.17 12.63
-7 -3 -10 84.66 11.68
-7 3 -10 88.22 10.73
-7 3 10 94.8 9.43
-7 -3 -10 73.63 9.7
-7 -3 10 89.88 10.04
7 -3 10 79.28 9.36
7 -3 -10 85.38 9.64
-7 3 10 99.82 9.34
7 3 11 36.64 6.55
-7 -3 11 37.84 8.33
-7 -3 -11 20.98 7.02
7 -3 -11 14.67 6.34
7 -3 -11 21.54 8.44
7 -3 11 25.55 8.64
-7 -3 -11 41.87 8.74
-7 3 -11 37.95 7.01
-7 -3 -11 34.97 6.26
-7 -3 11 26.71 5.44
7 -3 11 26.15 5.16
7 -3 -11 34.56 5.71
-7 3 11 27.23 4.81
7 3 12 55.95 8.74
7 3 12 54.74 10.42
-7 -3 12 53.87 10.07
-7 -3 -12 48.09 10.39
7 -3 -12 52.32 10.7
7 -3 -12 60.49 12.45
7 -3 12 56.81 12.12
-7 -3 -12 94.38 11.59
-7 3 -12 64.04 9.4
-7 -3 -12 76.02 9.13
-7 -3 12 75.51 8.89
7 -3 12 68.81 8.27
7 -3 -12 65.74 8.22
7 3 -12 65.02 8.93
-7 3 12 73.97 7.77
7 3 13 65.83 9.31
7 3 13 69.76 11.5
-7 -3 13 60.36 10.46
-7 -3 -13 69.28 11.4
7 -3 -13 69.75 11.38
7 -3 -13 33.05 10.67
7 -3 13 42.95 11.52
-7 -3 -13 90.79 11.58
-7 3 -13 71.27 9.45
7 -3 13 83.79 8.76
7 -3 -13 71.88 8.44
-7 -3 -13 60.81 8.68
-7 -3 13 62.59 8.38
7 3 -13 78.86 9.31
-7 3 13 70.29 7.75
7 3 14 7.31 4.56
7 3 14 11.21 5.88
-7 -3 14 12.02 5.6
-7 -3 -14 9.89 5.79
7 -3 -14 6.18 5.36
7 -3 -14 9.68 7.33
7 -3 14 1.95 5.5
-7 -3 -14 15.13 5.97
-7 3 -14 8.77 4.45
-7 3 14 10.37 4.92
-7 -3 -14 6.83 3.62
-7 -3 14 6.37 3.72
7 3 -14 11.1 4.09
7 -3 14 5.69 3.28
7 -3 -14 11.44 4.04
-7 3 14 6.51 2.91
7 3 15 1.86 3.7
7 3 15 4.3 5.56
-7 -3 15 -2.7 5.09
-7 -3 -15 -1.41 5.01
7 -3 -15 1.57 4.64
7 -3 -15 3.86 6.64
7 -3 15 1.93 5.43
-7 3 -15 1.76 3.91
-7 -3 -15 2.35 4.79
-7 3 15 -3.18 4.42
-7 -3 -15 -0.75 3.35
7 3 -15 -1.6 3.33
7 -3 -15 0.63 2.92
-7 3 15 2.52 2.69
7 3 16 33.4 6.87
7 3 16 53.34 10.1
7 -3 -16 38.4 9.12
-7 3 -16 42.01 7.42
-7 -3 -16 47.95 8.88
-7 3 16 36.79 7.58
-7 -3 -16 45.14 7.01
7 -3 -16 30.23 5.84
7 3 -16 49.82 7.4
-7 3 16 39.06 5.55
-7 3 17 9.24 5.41
7 3 17 -1.94 3.68
7 3 17 -1.52 5.05
7 -3 -17 3.26 5.03
-7 3 -17 11.36 5.11
-7 3 17 3.39 4.83
7 3 -17 8.15 4.54
-7 3 17 5.97 2.96
-7 3 -18 156.22 16.37
7 3 18 191.66 17.79
7 3 18 139.41 18.89
7 -3 -18 121.16 18.06
-7 -3 -18 172.11 18.42
-7 3 18 152.3 17.65
7 3 -18 155.62 16.12
7 3 -18 175.51 17.15
-7 3 18 163.07 14.54
-7 3 18 176.79 17.6
7 3 19 15.24 5.22
7 3 19 12.71 7.09
-7 3 -19 7.95 4.62
-7 -3 -19 17.71 6.58
-7 3 19 3.6 5.15
7 3 -19 0.95 4.37
7 3 -19 1.64 3.91
7 3 -19 9.58 4.93
-7 3 19 11.61 3.55
7 3 20 41.36 7.8
7 3 20 25.96 8.66
-7 3 -20 43.4 7.37
-7 -3 -20 44.81 9
-7 3 20 37.96 8.58
7 3 -20 37.91 7.19
7 3 -20 45.46 7.61
7 3 -21 10.93 5.19
7 3 21 6.39 4.28
7 3 21 8.28 6.62
-7 3 -21 16.02 4.98
-7 -3 -21 2.61 4.83
-7 3 21 9.99 5.91
7 3 -21 9.79 4.65
7 3 22 11.91 5.34
7 3 -22 4.05 5
7 3 22 8.47 6.96
-7 3 -22 10.78 4.8
-7 -3 -22 14.53 6.38
-7 3 22 8.92 5.95
7 3 -22 26.8 6.17
7 3 23 28.63 6.71
7 3 23 6.91 7.72
7 3 -23 24.72 7.18
-7 3 -23 23.46 5.81
-7 -3 -23 21.41 7.34
-7 3 23 19.88 6.67
7 3 -23 34.2 6.79
-7 3 -24 37.26 6.58
7 3 24 37.4 8.09
-7 3 -24 43.97 7.52
7 3 -24 23.15 6.79
-7 -3 -24 53.24 9.8
-7 3 24 51.32 9.62
7 3 -24 35.56 7.35
-7 3 -25 22.71 5.37
7 3 25 9.22 5.35
-7 3 -25 18.11 5.46
-7 -3 -25 16.6 7.26
7 3 -25 7.5 5.25
-7 3 25 16.51 6.79
7 3 -25 21.67 6.26
-7 3 -26 54.73 7.92
7 3 26 58.57 9.56
-7 3 -26 53.49 8.31
-7 -3 -26 46.54 9.58
-7 3 26 36.43 9.2
7 3 -26 44.69 8.67
7 3 -26 53.68 8.73
-7 3 -27 5.93 4.07
7 3 27 2.38 4.38
-7 3 -27 7.25 4.43
-7 -3 -27 -1.43 4.76
-7 3 27 1.43 5.68
7 3 -27 11.15 5.35
7 3 -27 2.12 4.23
-7 3 -28 12.95 4.59
7 3 -28 14.74 6.1
7 3 -28 29.33 6.53
7 3 -29 12.22 5.21
-8 -3 0 12.92 5.72
-8 3 0 4.98 3.24
-8 -3 0 3.24 3.54
8 -3 0 3.41 3.39
-8 3 0 1.77 3.03
-8 -3 1 12.89 5.72
-8 -3 -1 12.95 6.29
-8 3 -1 0.72 3.21
-8 3 1 4.9 3.27
-8 -3 -1 6.5 3.92
-8 -3 1 7.22 3.94
8 -3 1 8.85 4.05
8 -3 -1 6.13 3.86
-8 3 -1 8.21 3.37
-8 3 1 7.45 3.34
-8 -3 2 44.3 8.99
-8 -3 -2 44.7 9.06
-8 3 -2 45.8 6.91
-8 3 2 48.95 6.88
-8 -3 -2 43.15 6.85
-8 -3 2 47.99 7.43
8 -3 2 34.03 6.07
8 -3 -2 42.92 6.48
-8 3 -2 40.95 6.02
-8 3 2 42.65 6.19
-8 -3 3 2.85 5.38
-8 -3 -3 10.11 5.75
-8 3 -3 0.74 3.01
-8 3 3 2.71 3.13
-8 -3 -3 3.24 3.6
-8 -3 3 3.19 3.41
8 -3 3 2.04 3.15
8 -3 -3 4.77 3.59
-8 3 -3 0.58 2.75
-8 3 3 0.56 2.78
-8 -3 4 -2.84 4.56
-8 -3 -4 14.46 5.76
-8 3 -4 2.23 3.03
-8 3 4 2.69 3.34
-8 -3 -4 4.87 3.76
-8 -3 4 3.97 3.09
8 -3 4 4.08 3.37
8 -3 -4 4.76 3.59
-8 3 -4 2.32 2.93
-8 3 4 2.73 2.89
-8 -3 5 8.5 5.35
-8 -3 -5 2.9 5.31
-8 -3 -5 -1.08 4.88
-8 3 -5 -0.75 3.28
-8 3 5 3.96 3.43
-8 -3 -5 2.44 3.69
-8 -3 5 3.17 3.86
8 -3 5 -0.68 3.14
8 -3 -5 3.4 3.63
-8 3 5 3.85 2.94
-8 -3 6 60.96 10.34
-8 -3 -6 33.35 8.27
-8 -3 -6 45.48 8.21
-8 3 -6 29.5 5.73
-8 3 6 33.71 5.64
-8 -3 -6 31.73 6.23
-8 -3 6 19.75 5.29
8 -3 6 35.89 5.92
8 -3 -6 29.89 5.62
-8 3 6 29.66 5.05
-8 -3 7 12.72 6.07
-8 -3 -7 8.71 5.68
-8 -3 -7 15.33 6.2
-8 3 -7 14.54 4.42
-8 3 7 12.78 3.76
-8 -3 -7 10.59 4.41
-8 -3 7 7.09 4.21
8 -3 7 10.14 4.14
8 -3 -7 10.17 4.02
-8 3 7 6.51 3.25
8 3 8 2.53 3.54
-8 -3 8 11.27 6.27
-8 -3 -8 7.29 6.62
-8 -3 -8 17.81 5.95
-8 3 -8 11.55 4.24
-8 3 8 1.91 2.79
-8 -3 -8 1.63 3.42
-8 -3 8 5.49 3.64
8 -3 8 8.12 3.87
8 -3 -8 4.74 3.32
-8 3 8 3.73 2.75
8 3 9 6.93 3.91
-8 -3 9 18.25 6.4
-8 -3 -9 5.83 5.69
-8 -3 -9 14.77 5.48
-8 3 -9 3.58 4.76
-8 3 -9 7.78 3.73
-8 3 9 8.81 3.47
-8 -3 -9 6.53 3.83
-8 -3 9 9.38 3.99
8 -3 9 14.19 4.09
8 -3 -9 11.49 4.26
-8 3 9 11.51 3.36
8 3 10 0.88 3.23
-8 -3 10 5.59 4.82
-8 -3 -10 1.14 4.89
-8 3 -10 3.6 4.01
-8 3 10 7.47 3.38
-8 -3 -10 -0.82 3.42
-8 -3 10 3.86 3.83
8 -3 10 7.41 3.75
8 -3 -10 -0.67 3.01
-8 3 10 6.85 3.33
8 3 11 10.76 4.32
-8 -3 11 11.15 5.56
-8 -3 -11 13.12 5.82
8 -3 -11 5.94 4.6
-8 -3 -11 2.32 5.29
-8 3 -11 6.35 4.59
-8 3 11 11.68 3.62
-8 -3 -11 -0.82 4.01
-8 -3 11 3.07 3.1
8 -3 11 11.42 3.9
8 -3 -11 12.15 4.36
-8 3 11 7.78 3.03
8 3 12 2.75 3.16
-8 -3 12 7.02 5.15
-8 -3 -12 1.46 5.02
8 -3 -12 -3.01 3.8
-8 -3 -12 -1.18 4.56
-8 3 -12 -3.65 4.3
-8 -3 -12 5.71 3.98
-8 -3 12 3.82 3.27
8 -3 12 5.35 3.67
8 -3 -12 5.38 3.88
-8 3 12 5.65 2.93
8 3 13 28.86 6.2
-8 -3 13 53.11 9.64
-8 -3 -13 32.03 8.18
8 -3 -13 21.52 7.18
-8 -3 -13 45.1 8.53
-8 3 -13 31.09 6.72
-8 -3 -13 37.16 6.28
-8 -3 13 31.22 5.89
8 3 -13 29.34 5.99
8 -3 13 30.71 5.69
8 -3 -13 24.14 5.49
-8 3 13 25.9 4.85
8 3 14 29.53 6.23
-8 -3 14 43.13 8.86
-8 -3 -14 29.4 8.16
8 -3 -14 37.5 9.07
-8 -3 -14 29.05 7.56
-8 3 -14 24.77 6.56
-8 3 14 23.42 6.41
-8 -3 -14 29.87 6
-8 -3 14 34.53 6.02
8 3 -14 31.13 6.16
8 -3 14 25.93 5.65
8 -3 -14 32.05 5.74
-8 3 14 37.56 5.32
8 3 15 2.9 3.75
-8 -3 15 -6.92 5.08
8 -3 -15 -1.59 4.48
8 -3 15 -2.04 6.29
-8 -3 -15 9.78 5.85
-8 3 -15 -0.92 4.27
-8 3 15 -1.06 4.13
-8 -3 -15 6.45 3.86
8 3 -15 1.65 3.58
8 -3 -15 2.66 3.19
-8 3 15 3.63 3.06
8 3 16 9.91 4.61
8 3 16 6.15 6.13
8 -3 -16 11.36 5.8
-8 3 -16 4.63 4.39
-8 -3 -16 3.76 5.36
-8 3 16 6.51 5.13
8 3 -16 4.13 3.99
8 -3 -16 7.29 3.62
-8 3 16 8.76 3.05
8 3 17 2.01 3.47
8 3 -17 -1.97 4.72
8 -3 -17 1.65 4.41
-8 3 -17 -1.84 4.25
-8 -3 -17 -2.53 4.5
-8 3 17 5.67 5.04
-8 3 17 2.59 2.73
8 3 18 3.09 4.2
8 3 -18 -1 4.26
-8 3 -18 -3.67 4.4
-8 -3 -18 -5.15 5.12
-8 3 18 2.31 4.11
8 3 19 1.05 4.06
8 3 -19 -3.05 5.11
-8 3 -19 0.93 3.86
-8 -3 -19 3.91 5.43
-8 3 19 1.18 4.18
8 3 -19 -0.99 3.94
8 3 20 5.32 4.34
-8 3 -20 2.77 4.28
8 3 -20 5.15 4.68
-8 -3 -20 3.99 5.02
-8 3 20 11.05 5.78
8 3 -20 -1 4.07
8 3 21 -1.09 4
-8 3 -21 0.93 4.28
-8 -3 -21 -1.34 5.07
8 3 -21 -4.2 5.03
-8 3 21 -1.25 4.97
8 3 -21 -2.01 4.2
8 3 22 6.64 5.02
-8 3 -22 -1.86 3.88
-8 -3 -22 2.74 4.57
8 3 -22 4.26 4.65
-8 3 22 5.09 5.07
8 3 -22 5.08 4.53
8 3 23 4.49 4.12
-8 3 -23 0.94 3.9
-8 -3 -23 2.77 5.09
-8 3 23 1.3 4.89
8 3 -23 1.08 4.82
8 3 -23 5.14 4.19
8 3 24 24.17 6.46
-8 3 -24 18.75 5.82
-8 -3 -24 15.52 6.42
-8 3 24 16.17 6.15
8 3 -24 16.49 5.7
8 3 -24 23.83 6.4
8 3 25 14.02 5.77
-8 3 -25 15.82 5.25
-8 3 25 16.45 6.96
8 3 -25 8.38 5.02
8 3 -25 12.28 6.11
8 3 -26 10.2 5.46
8 3 -26 6.37 4.66
8 3 -27 -3.24 4.3
-9 3 0 2.95 3.35
-9 -3 0 5.17 3.91
9 -3 0 1.43 3.26
-9 3 0 2.84 3
-9 3 -1 4.5 3.27
-9 3 1 4.35 3.48
-9 -3 -1 3.46 3.85
-9 -3 1 -1.72 3.25
9 -3 1 7.16 3.67
9 -3 -1 10.75 4.04
-9 3 -1 -1.13 2.76
-9 3 1 4.43 2.96
-9 3 -2 18.83 4.84
-9 3 2 13.72 4.28
-9 -3 -2 18.18 5
-9 -3 2 18.86 5.12
9 -3 2 22.19 5.19
9 -3 -2 19.36 4.92
-9 3 -2 17.42 4.38
-9 3 2 22.86 4.48
-9 3 -3 43.59 6.94
-9 3 3 35.45 6.32
-9 -3 -3 39.91 7.13
-9 -3 3 42.51 7.13
9 -3 3 49.35 7.03
9 -3 -3 40.15 6.89
-9 3 -3 47.34 6.35
-9 3 3 45.33 6.28
-9 3 -4 46.12 7.33
-9 3 4 54.33 7.56
-9 -3 -4 45.17 7.37
-9 -3 4 34.75 7.07
9 -3 4 56.44 7.56
9 -3 -4 42.27 7.05
-9 3 -4 43.35 6.37
-9 3 4 43.47 6.3
-9 3 -5 171.82 16.47
-9 3 5 177.54 16.17
-9 -3 -5 144.45 16.44
-9 -3 5 153.71 16.41
9 -3 5 188.23 16.52
9 -3 -5 182.48 16.4
-9 3 -5 167.85 15.51
-9 3 5 167.4 15.22
-9 -3 -6 45.82 9.89
-9 3 -6 29.07 5.98
-9 3 6 34.89 5.96
-9 -3 -6 40.72 7.03
-9 -3 6 38.73 6.9
9 -3 6 33.46 6.06
9 -3 -6 33.59 6.12
-9 3 -6 25.93 5.11
-9 3 6 27.74 5.06
9 3 7 150.1 15.2
-9 -3 -7 138.23 16.52
-9 3 -7 132.98 14.46
-9 3 7 161.82 14.42
-9 -3 -7 137.01 14.94
-9 -3 7 153.49 15.11
9 -3 7 134.95 14.19
9 -3 -7 134.88 14.23
-9 3 -7 140.19 13.65
-9 3 7 159.66 13.64
9 3 8 10.66 4.8
-9 -3 -8 4.66 6.75
-9 3 -8 12.89 4.53
-9 3 8 10.05 3.7
-9 -3 -8 6.94 4.56
-9 -3 8 8.36 4.39
9 -3 8 18.43 4.98
9 -3 -8 6.41 3.76
-9 3 -8 12.87 3.79
-9 3 8 8.93 3.51
9 3 9 17.26 5.49
-9 -3 9 35.5 8.94
-9 -3 -9 20.11 6.81
-9 3 -9 20.27 5.2
-9 3 9 24.71 5
-9 -3 -9 19.1 4.91
-9 -3 9 20.81 5.28
9 -3 9 16.32 5.02
9 -3 -9 23.46 5.1
-9 3 9 15.36 3.95
9 3 10 3.71 3.88
-9 -3 10 4.42 5.57
-9 -3 -10 6.14 6.41
-9 -3 -10 19.05 6.87
-9 3 -10 1.89 4.12
-9 3 -10 2.45 3.26
-9 3 10 9.25 3.82
-9 -3 -10 -0.87 3.64
-9 -3 10 9.95 4.25
9 -3 10 4.95 3.68
9 -3 -10 4.96 3.69
-9 3 10 2.63 2.82
9 3 11 10.34 4.69
-9 -3 11 16.15 6.28
-9 -3 -11 10.73 6.12
-9 -3 -11 13.37 6.42
-9 3 -11 9.49 4.95
-9 3 -11 2.47 3.16
-9 3 11 10.48 3.68
-9 -3 -11 7.81 4.26
-9 -3 11 12.29 4.28
9 -3 11 9.87 3.85
9 -3 -11 1.42 3.39
-9 3 11 5.82 3.03
9 3 12 19.24 5.42
-9 -3 12 29.23 7.9
-9 -3 -12 27.58 7.93
-9 -3 -12 12.25 6
-9 3 -12 17.16 5.38
-9 3 -12 17.43 4.61
-9 3 12 13.62 4.03
-9 -3 -12 25.15 5.86
-9 -3 12 15.49 4.98
9 -3 12 18.26 4.64
9 -3 -12 18.39 4.63
-9 3 12 15.24 3.72
9 3 13 0.97 3.97
-9 -3 13 5.84 5.95
-9 -3 -13 1.53 5.09
-9 -3 -13 3.72 4.68
-9 3 -13 -3.84 4.68
-9 3 -13 4.19 3.73
-9 3 13 1.94 2.76
-9 -3 -13 0.86 3.59
-9 -3 13 3.24 3.82
9 -3 13 1.4 3.11
9 -3 -13 2.11 3.01
-9 3 13 5.83 2.99
9 3 14 10.93 4.89
-9 -3 14 17.43 6.5
-9 -3 -14 15.33 6.85
-9 -3 -14 5.03 5.41
-9 3 -14 14.41 5.03
-9 3 14 4.12 4.54
-9 3 -14 10.96 4.23
9 3 -14 8.07 5.04
-9 -3 -14 8.59 4.17
9 3 -14 11.83 4.31
9 -3 -14 5.62 3.71
-9 3 14 10.54 3.45
9 3 15 32.22 6.55
-9 -3 15 20.24 7.07
-9 -3 -15 12.69 6.14
-9 3 -15 26.94 6.45
-9 3 15 16.09 5.9
-9 -3 -15 26.56 5.92
9 3 -15 13.28 5.56
9 -3 -15 17.47 4.82
-9 3 15 18.04 4.06
9 3 16 11.31 5.11
9 -3 -16 18.06 6.87
-9 3 -16 7.7 4.86
-9 -3 -16 11.63 5.88
-9 3 16 1.09 4.36
9 3 -16 3.1 4.62
9 3 17 36.48 6.94
-9 3 -17 29.06 6.54
-9 -3 -17 32.62 8.09
-9 3 17 22.68 6.41
9 3 -17 13.61 6.03
9 3 -18 5.31 4.65
9 3 18 6.39 4.37
-9 3 -18 12.49 4.93
-9 -3 -18 9.35 5.72
-9 3 18 3.46 4.83
9 3 -19 12.91 5.34
9 3 19 21.57 5.77
-9 3 -19 14.37 5.43
-9 -3 -19 31.01 7.9
-9 3 19 25.77 6.49
9 3 20 1.09 4.01
9 3 -20 -1.09 5.14
-9 3 -20 0.96 4.02
-9 -3 -20 1.37 4.73
-9 3 20 8.54 5.84
9 3 -20 1.03 4.2
9 3 21 1.12 4.1
9 3 -21 -1.11 4.41
-9 3 -21 -3.85 4.36
-9 -3 -21 5.54 5.65
-9 3 21 4.96 5.62
9 3 -21 3.11 4.42
9 3 22 47.56 8.37
9 3 -22 39.3 8.13
-9 3 -22 45.17 7.88
-9 3 22 30.22 7.78
9 3 -22 65.64 9.17
9 3 -23 4.55 4.87
-9 3 23 3.84 4.85
9 3 -23 11.55 5.14
9 3 -24 4.24 4.12
-10 3 0 2.27 3.16
-10 -3 0 2.74 4.14
10 -3 0 3.01 3.85
-10 3 0 0.55 2.64
-10 3 -1 3.86 3.22
-10 3 1 2.27 3.29
-10 -3 -1 -1.83 3.81
-10 -3 1 3.64 3.96
10 -3 1 2.26 3.21
10 -3 -1 0.75 3.42
-10 3 -1 -0.55 2.88
-10 3 1 2.7 2.68
-10 3 -2 4.71 3.63
-10 3 2 2.23 3.1
-10 -3 -2 3.66 4.31
-10 -3 2 -0.91 4.12
10 -3 2 0.75 3.21
10 -3 -2 3.76 3.07
-10 3 -2 0.56 2.85
-10 3 2 1.09 2.47
-10 3 -3 -2.36 3.43
-10 3 3 2.22 3.08
-10 -3 -3 -0.92 3.91
-10 -3 3 -0.9 3.69
10 -3 3 -3.75 3.59
10 -3 -3 1.51 3.35
-10 3 -3 -1.11 2.74
-10 3 3 0.53 2.42
-10 3 -4 1.6 3.03
-10 3 4 2.92 2.91
-10 -3 -4 -0.92 4.09
-10 -3 4 0.9 3.68
10 -3 4 10.49 4.27
10 -3 -4 9.03 4.08
-10 3 -4 3.41 2.96
-10 3 4 3.23 2.76
-10 3 -5 12.85 4.37
-10 3 5 18.06 4.93
-10 -3 -5 14.71 5.29
-10 -3 5 18.88 5.41
10 -3 5 18.71 4.79
10 -3 -5 16.55 4.99
-10 3 5 11.66 3.41
-10 3 -6 8.15 3.92
-10 3 6 7.2 3.7
-10 -3 -6 3.68 3.86
-10 -3 6 -0.9 3.76
10 -3 6 2.99 3.72
10 -3 -6 12.77 4.29
-10 3 6 6.95 3.1
10 3 7 2.77 3.58
-10 -3 -7 2.42 5.05
-10 3 -7 4.91 3.49
-10 3 7 1.43 3.11
-10 -3 -7 4.61 4.18
-10 -3 7 0.89 3.81
10 -3 7 -0.75 3.57
10 -3 -7 -3.75 3.83
-10 3 7 3.71 2.79
10 3 8 9.42 4.49
-10 -3 -8 12.17 6.06
-10 3 -8 13.3 4.55
-10 3 8 6.35 3.78
-10 -3 -8 6.45 4.07
-10 -3 8 13.33 4.46
10 -3 8 11.93 4.45
10 -3 -8 11.22 4.32
-10 3 8 7.47 3.26
10 3 9 4.76 4.16
-10 -3 -9 3.69 5.37
-10 3 -9 4.18 3.34
-10 3 9 4.22 3.38
-10 -3 -9 4.61 4.02
-10 -3 9 -0.89 3.79
10 -3 9 4.46 3.57
10 -3 -9 8.21 4.21
-10 3 9 4.77 2.96
10 3 10 1.94 3.65
-10 -3 -10 2.48 4.92
-10 3 -10 -0.98 3.91
-10 3 -10 -1.69 3.61
-10 3 10 1.4 2.78
-10 -3 -10 -4.61 3.57
-10 -3 10 1.75 3.4
10 -3 10 -1.48 3.3
10 -3 -10 3.72 3.51
-10 3 10 2.14 2.69
10 3 11 1.96 3.48
-10 -3 -11 8.79 5.91
-10 3 -11 3.96 4.49
-10 3 -11 -0.85 3.12
-10 3 11 1.38 2.76
-10 -3 -11 5.52 4.17
-10 -3 11 3.49 3.8
10 -3 11 -1.48 3.22
10 -3 -11 -0.75 3.57
-10 3 11 5.32 3.03
10 3 12 8 4.92
10 3 -12 13.8 5.79
-10 -3 -12 10.12 5.99
-10 3 -12 11.92 4.81
-10 3 -12 10.26 4.29
-10 3 12 10.44 3.98
-10 -3 -12 13.79 4.82
-10 -3 12 6.95 4.29
10 -3 12 10.3 4.59
10 -3 -12 8.91 4.13
-10 3 12 7.51 3.13
10 3 13 1.01 4.03
-10 -3 13 10.76 6.27
10 3 -13 2.14 3.93
-10 -3 -13 6.45 5.51
-10 3 -13 -1.99 4.7
-10 3 -13 0.86 3.17
-10 3 13 1.39 3.03
-10 -3 -13 6.39 4.06
-10 -3 13 6.91 3.68
10 -3 13 -0.73 3.2
10 -3 -13 0.74 3.61
-10 3 13 1.62 2.5
10 3 14 -1.03 3.67
-10 -3 14 9.18 5.44
-10 -3 -14 -1.3 5.17
-10 3 -14 -1 4.25
10 3 -14 1.08 4.51
-10 3 -14 -1.74 3.54
-10 3 14 -2.09 3.45
-10 -3 -14 -0.91 3.8
10 -3 -14 2.21 3.59
10 3 15 -2.09 4.05
-10 -3 -15 -3.95 4.68
-10 3 -15 1 4.18
10 3 -15 1.09 4.45
-10 3 15 -1.07 4.27
-10 3 -15 2.63 3.58
-10 -3 -15 0.91 3.7
10 -3 -15 0.73 3.45
10 3 16 -1.07 4.35
-10 3 -16 -4.01 4.37
-10 -3 -16 1.33 4.86
-10 3 16 -1.09 4.11
10 3 -16 8.82 5.46
-10 3 -16 -0.88 3.51
10 3 17 2.16 4.19
-10 3 -17 11.02 5.04
-10 -3 -17 2.69 5.73
-10 3 17 4.42 3.93
-10 3 -17 0.89 3.79
10 3 -17 -3.34 4.65
10 3 18 3.29 4.16
-10 3 -18 3.97 4.93
-10 3 18 9.23 5.35
-10 3 -18 8.95 4.15
10 3 -18 1.13 4.72
10 3 19 3.33 3.95
-10 3 -19 -2.99 4.43
-10 3 19 5.85 4.88
10 3 -19 1.14 4.97
-10 3 20 1.22 4.19
10 3 -20 -1.15 4.47
10 3 -20 7.42 4.71
-11 3 0 -0.78 3.34
-11 -3 0 0.97 3.94
11 -3 0 2.35 3.11
-11 3 0 2.67 2.73
-11 3 -1 6.29 3.63
-11 3 1 8.52 3.64
-11 -3 -1 7.75 4.09
-11 -3 1 12.54 5.12
11 -3 1 6.25 3.74
11 -3 -1 8.61 3.99
-11 3 -1 12.52 3.52
-11 3 1 11.86 3.42
-11 3 -2 2.4 3.34
-11 3 2 6.95 3.76
-11 -3 -2 -0.97 4.05
-11 -3 2 -1.92 4.45
11 -3 2 0.78 3.47
11 -3 -2 4.69 3.62
-11 3 2 5.31 2.68
-11 3 -3 -0.81 3.24
-11 3 3 3.06 3.6
-11 -3 -3 -0.97 4.05
-11 -3 3 -3.84 4.35
11 -3 3 7.79 4.04
11 -3 -3 0.78 3.55
-11 3 3 2.68 2.65
-11 3 -4 13.88 4.36
-11 3 4 17.54 4.52
-11 -3 -4 10.7 5.15
-11 -3 4 14.35 5.28
11 -3 4 13.23 4.5
11 -3 -4 14.08 4.47
-11 3 4 16.45 3.86
-11 3 -5 11.63 4.41
-11 3 5 5.29 3.67
-11 -3 -5 6.82 4.11
-11 -3 5 0.95 3.93
11 -3 5 10.09 4.24
11 -3 -5 10.16 4.1
-11 3 5 16.05 3.64
11 3 6 -0.96 3.61
-11 3 -6 -2.5 3.71
-11 3 6 4.49 3.33
-11 -3 -6 5.84 4.33
-11 -3 6 -0.95 3.78
11 -3 6 2.35 3.69
11 -3 -6 0.78 3.54
-11 3 6 0.53 2.5
11 3 7 3.9 3.97
-11 3 -7 3.38 4.05
-11 3 7 4.48 3.39
-11 -3 -7 0.97 4.25
-11 -3 7 -0.95 4.29
11 -3 7 1.56 3.68
11 -3 -7 -1.56 3.54
-11 3 7 1.07 2.78
11 3 8 14.75 4.94
-11 3 -8 13.58 4.5
-11 3 8 17.77 4.62
-11 -3 -8 25.34 5.87
-11 -3 8 25.44 5.75
11 -3 8 17.15 4.85
11 -3 -8 18.11 5
-11 3 8 10.67 3.78
11 3 9 3 3.67
-11 -3 -9 2.55 5.56
-11 3 -9 -0.85 3.21
-11 3 9 -2.22 2.94
-11 -3 -9 0.97 3.87
-11 -3 9 -1.87 4.16
11 -3 9 -1.56 3.53
11 -3 -9 6.28 3.95
-11 3 9 -0.54 2.39
11 3 10 -1.01 3.59
-11 -3 -10 2.57 4.84
-11 3 -10 -1.73 3.99
-11 3 10 0.73 3.26
-11 -3 -10 0.97 3.77
-11 -3 10 -2.79 4.3
11 -3 10 0.77 3.64
11 -3 -10 -2.35 3.62
-11 3 10 2.71 2.89
11 3 11 -1.03 3.65
-11 -3 -11 5.19 4.89
-11 3 -11 3.08 4.37
-11 3 -11 -0.87 3.7
-11 3 11 -0.74 3.08
-11 -3 -11 -0.97 4.4
-11 -3 11 -0.93 3.95
11 -3 11 1.54 3.63
11 -3 -11 1.56 3.54
11 3 12 -1.04 3.8
11 3 -12 2.26 4.6
-11 3 -12 -1.03 4.19
-11 3 12 -1.48 3.09
-11 -3 -12 -3.87 4.39
-11 -3 12 1.84 3.66
11 -3 12 0.77 3.76
11 -3 -12 4.67 3.73
11 3 13 3.16 4.26
11 3 -13 13.68 5.51
-11 3 -13 9.29 4.92
-11 3 13 15.5 4.37
-11 -3 -13 14.49 5.14
11 -3 -13 10.08 4.42
11 3 14 6.39 4.66
11 3 -14 1.15 4.59
-11 3 14 12.58 4.19
-11 -3 -14 5.78 4.31
11 -3 -14 6.17 3.91
11 3 -15 11.62 5.45
-11 3 15 12.94 5.66
-11 3 15 10.4 4.27
11 -3 -15 15.41 4.88
-11 3 16 17.47 5.72
-12 3 3 2.65 2.59
-12 3 4 11.22 3.32
-12 3 5 5.31 3.01
12 3 6 -1 3.79
-12 3 6 3.75 2.87
12 3 7 7.08 4.53
0 4 0 313.21 26.72
0 4 0 316.41 28.01
0 4 -1 5.77 4.21
0 4 1 2.94 4.47
0 4 1 10.76 3.95
0 4 -1 3.66 3.28
0 4 -2 0.96 4.08
0 4 2 7.92 4.32
0 4 2 4.26 2.91
0 4 -2 1.49 3.44
0 4 3 3.02 4
0 4 -3 -0.75 3.21
0 4 4 11.16 4.87
0 4 -4 2.27 3.18
0 4 5 1.03 3.66
0 4 -5 -2.3 3.61
0 4 6 1.04 4.24
0 4 -6 -3.09 3.37
0 4 7 -5.26 4.29
0 4 -7 -0.78 3.55
0 4 8 1.07 4.04
0 4 -8 5.53 3.66
0 4 9 -1.08 4.18
0 4 -9 -1.6 3.49
0 4 -9 -0.83 3.22
0 4 10 -2.2 4.9
0 4 -10 1.61 3.21
0 4 -10 5.08 3.54
0 4 11 6.68 5.15
0 4 -11 2.45 3.19
0 4 -11 7.89 4.07
0 4 12 59.11 9.39
0 4 -12 59.36 8.39
0 4 -12 55.43 8.34
0 4 13 -1.15 4.1
0 4 -13 8.36 3.88
0 4 -13 6.48 3.88
0 4 14 11.76 5.19
0 4 -14 10.14 4.2
0 4 -14 13.21 4.67
0 4 15 2.38 4.49
0 4 -15 5.14 3.89
0 4 -15 3.91 3.99
0 4 16 2.44 4.86
0 -4 -16 3.76 5.56
0 4 -16 8.66 4.01
0 4 -16 2.99 3.66
0 4 17 2.46 5.15
0 -4 -17 5.69 5.6
0 4 -17 7.02 4.15
0 4 -17 5.16 3.8
0 4 18 -1.26 4.5
0 -4 -18 -1.91 5.38
0 4 -18 0.89 3.06
0 4 -18 3.15 4.07
0 4 19 1.28 4.96
0 -4 -19 9.64 6.86
0 4 -19 -0.9 3.3
0 4 -19 1.09 3.76
0 4 20 3.94 5.22
0 4 -20 -0.73 3.39
0 -4 -20 1.94 6.23
0 4 -20 -0.91 3.15
0 4 -20 1.11 4.41
0 4 21 -1.33 5.01
0 4 -21 2.24 3.32
0 -4 -21 9.79 6.51
0 4 -21 0.92 3.29
0 4 -21 2.31 4.47
0 4 22 -2.74 5.44
0 4 -22 2.27 3.23
0 -4 -22 1.97 5.55
0 4 -22 1.88 3.64
0 4 -22 4.69 5.11
0 4 23 4.23 5.17
0 4 -23 -0.77 3.28
0 -4 -23 -1.99 5.59
0 4 -23 2.85 4.05
0 4 -23 -6.1 5.09
0 4 -24 8.55 4.27
0 -4 -24 12.02 7.13
0 4 -24 6.75 4.3
0 4 -24 -2.48 4.13
0 4 -25 2.37 3.3
-1 4 0 -3.02 3.7
1 4 0 -1.5 3.26
-1 4 1 1.01 3.93
1 4 1 0.96 4.09
1 4 1 2.22 3.6
1 4 -1 -2.27 3.15
-1 4 -1 0.71 3.27
-1 4 2 10.21 4.86
1 4 2 18.42 5.07
1 4 2 3.66 3.63
1 4 -2 12.24 4.19
-1 4 -2 8.62 3.95
-1 4 3 13.37 4.88
1 4 3 6.51 3.58
1 4 -3 9.29 4.24
-1 4 -3 4.35 3.29
-1 4 4 16.62 5.74
1 4 4 23.83 5.78
1 4 4 22.03 4.96
1 4 -4 19.52 5.08
-1 4 -4 19.88 4.95
-1 4 5 19.9 5.75
1 4 5 12.12 4.93
1 4 -5 15.02 4.76
-1 4 -5 8.97 4.26
-1 4 6 8.5 5.18
1 4 6 2.04 3.86
1 4 -6 3.98 3.55
-1 4 -6 0.75 3.16
1 4 -6 7.84 3.63
-1 4 7 14.99 5.26
1 4 7 8.35 4.5
1 4 -7 3.23 3.5
-1 4 -7 10.72 3.97
1 4 -7 12.77 4.48
-1 4 8 16.28 5.57
1 4 8 4.23 4.13
1 4 -8 6.48 3.98
-1 4 -8 8.5 3.73
1 4 -8 4.08 3.8
-1 4 9 17.51 5.86
1 4 9 11.89 5.29
1 4 -9 16.42 4.8
-1 4 -9 12.55 4.32
1 4 -9 17.54 4.82
-1 4 10 8.84 5.11
1 4 10 2.19 4.46
1 4 -10 -4.95 3.67
-1 4 -10 1.59 3.38
1 4 -10 4.25 3.63
-1 4 11 7.81 4.99
1 4 11 -1.12 3.9
1 4 -11 9.14 4.02
-1 4 -11 11.28 4.15
1 4 -11 13.13 4.64
-1 4 12 6.79 5.27
1 4 12 10.21 5.39
1 4 -12 12.63 4.42
-1 4 -12 13.05 4.41
1 4 -12 5.34 4.02
-1 4 13 10.38 5.31
1 4 13 15.14 5.93
1 -4 -13 12.97 7.79
1 4 -13 8.47 4.3
-1 4 -13 10.76 4.46
1 4 -13 19.31 5.57
-1 4 -13 17.81 5.16
-1 4 14 57.04 9.79
1 4 14 79.02 10.89
1 -4 -14 61.66 12.27
1 4 -14 60.08 8.92
-1 4 -14 55.4 8.45
1 4 -14 69.26 9.38
-1 4 -14 63.16 9.19
-1 4 15 32.08 7.44
1 4 15 32.71 7.58
-1 4 -15 20.59 5.3
1 -4 -15 18.86 8.05
1 4 -15 15.54 5.43
-1 4 -15 23.85 5.62
1 4 -15 22.24 5.95
-1 4 -15 30.85 6.55
-1 4 16 35.98 7.72
1 4 16 28.21 7.25
-1 4 -16 37.15 6.42
1 -4 -16 22.83 8.24
1 4 -16 28.86 6.29
-1 4 -16 38.11 6.78
1 4 -16 24.59 6.16
-1 4 -16 30.47 6.89
-1 4 17 77.21 10.97
1 4 17 58.02 9.95
-1 4 -17 58.17 7.93
1 -4 -17 42.2 10.52
1 4 -17 45.01 7.84
-1 4 -17 51.81 8.19
1 4 -17 55.9 8.76
-1 4 -17 43.5 8.25
-1 4 18 16.09 6.36
1 4 18 15.33 6.26
-1 4 -18 7.62 4.13
1 -4 -18 5.8 5.21
1 4 -18 8.93 4.19
-1 4 -18 12.47 4.67
1 4 -18 13.44 5.09
-1 4 -18 6.47 4.35
-1 4 19 5.07 5.04
1 4 19 2.64 4.98
-1 4 -19 -0.77 3.65
1 -4 -19 -1.95 6.02
1 4 -19 8.11 4.17
-1 4 -19 4.53 3.86
1 4 -19 4.27 4.25
-1 4 -19 -1.1 4.03
-1 4 20 2.56 4.56
1 4 20 13.62 6.75
-1 4 -20 7 4.15
1 -4 -20 3.93 6.55
1 4 -20 6.39 3.98
-1 4 -20 0.92 3.27
1 4 -20 -1.09 3.62
-1 4 -20 -1.14 4.32
-1 4 21 15.73 6.08
1 4 21 4.13 5.22
-1 4 -21 7.9 4.13
1 -4 -21 3.97 6.13
-1 -4 -21 19.25 7.28
1 4 -21 9.22 3.97
-1 4 -21 4.66 3.92
1 4 -21 7.86 4.5
-1 4 -21 1.17 4.05
-1 4 22 4.03 5.61
1 4 22 -1.43 5.23
-1 4 -22 -2.38 3.46
1 -4 -22 -4 5.34
-1 -4 -22 3.88 5.97
1 4 -22 -1.87 3.42
-1 4 -22 12.28 4.28
1 4 -22 -1.14 3.8
-1 4 -22 1.2 4.65
-1 4 23 2.72 5.12
1 4 23 2.89 5.45
-1 4 -23 1.61 3.51
1 -4 -23 2.02 5.38
-1 -4 -23 -1.95 5.21
1 4 -23 2.84 3.76
-1 4 -23 0.96 3.71
1 4 -23 -1.18 4.46
-1 4 -23 7.34 5.1
-1 4 -24 2.43 3.53
1 -4 -24 -2.03 6
-1 -4 -24 3.93 5.8
1 4 -24 3.82 4.25
-1 4 -24 2.51 4.47
1 4 -25 6.77 3.96
-1 -4 -25 -1.98 6.1
2 -4 0 3.64 4.67
2 4 0 9.16 3.93
2 -4 1 10.91 4.92
2 -4 -1 9.09 4.86
2 4 1 10.58 3.9
2 4 -1 15.55 4.4
2 -4 2 32.71 6.98
2 -4 -2 41.81 7.12
2 4 2 20.19 5.17
2 4 -2 22.01 5.26
-2 4 3 7.44 4.73
2 -4 3 1.82 4.04
2 -4 -3 3.63 4.72
2 4 3 8.15 4.07
2 4 -3 2.38 3.32
-2 4 -3 -0.71 3.33
2 4 -3 3.87 3.16
-2 4 4 5.35 4.39
2 4 4 6.95 4.27
2 -4 4 9.07 4.59
2 -4 -4 11.81 5.2
2 4 4 14.7 4.27
2 4 -4 3.21 3.47
-2 4 -4 5.75 3.49
2 4 -4 7.86 3.74
-2 4 5 -3.23 4.49
2 4 5 -2.01 3.9
2 -4 5 4.53 4.26
2 -4 -5 -0.91 4.03
2 4 5 0.73 3.04
2 4 -5 4.05 3.45
-2 4 -5 0.73 3.04
2 4 -5 1.59 3.55
-2 4 6 -1.08 4.41
2 4 6 -1.03 4.21
2 -4 6 2.71 4.18
2 -4 -6 1.81 3.78
2 4 6 -2.17 3.08
2 4 -6 -1.64 3.57
-2 4 -6 2.22 3.02
2 4 -6 5.67 3.53
-2 4 7 -4.37 4.86
2 4 7 6.28 4.56
2 -4 7 -1.81 4.17
2 -4 -7 3.62 4.48
2 4 -7 -0.83 3.45
-2 4 -7 -4.52 3.42
2 4 -7 -0.82 3.28
-2 4 8 -2.2 4.15
2 4 8 1.06 4.01
2 -4 8 -2.7 4.01
2 -4 -8 -1.81 4.09
2 4 -8 1.67 3.15
-2 4 -8 -1.53 3.04
2 4 -8 -1.68 3.42
-2 4 9 8.91 5.23
2 4 9 9.82 4.84
2 -4 9 14.29 5.04
2 -4 -9 10.81 5.02
2 4 -9 17.65 4.76
-2 4 -9 14.75 4.35
2 4 -9 11.11 4.26
-2 4 10 20.19 5.93
2 4 10 6.64 4.65
2 -4 10 15.15 5.57
2 -4 -10 9.88 5.08
2 4 -10 4.25 3.74
-2 4 -10 3.15 3.26
2 4 -10 6.95 4.12
-2 4 11 4.54 4.58
2 4 11 14.8 5.41
2 -4 -11 7.33 5.92
-2 4 -11 14.25 4.68
2 -4 11 18.65 5.58
2 -4 -11 17.81 5.54
2 4 -11 14.5 4.98
-2 4 -11 8.81 3.78
-2 4 11 7.41 3.47
2 4 -11 7.97 4.09
-2 4 12 3.43 4.78
2 4 12 4.62 5.04
2 -4 -12 -1.85 5.47
-2 4 -12 8.26 4.24
2 -4 12 11.51 5.46
2 -4 -12 14.2 5.53
2 4 -12 1.73 3.85
-2 4 -12 1.63 3.34
-2 4 12 4.31 3.4
2 4 -12 6.3 4.18
-2 4 13 47.36 8.55
2 4 13 47.55 8.44
2 -4 -13 24.28 8.66
-2 4 -13 37.36 6.57
2 -4 13 52.92 7.77
2 -4 -13 61.02 8.51
2 4 -13 28.6 6.75
-2 4 -13 42.26 6.92
2 4 -13 35 7.14
-2 4 14 -2.34 4.77
2 4 14 3.62 4.55
2 -4 -14 5.65 5.81
-2 4 -14 3.07 3.92
2 -4 -14 4.4 4.22
2 4 -14 3.49 4.11
-2 4 -14 4.21 3.75
2 4 -14 -0.95 4.04
-2 4 15 12.98 5.95
2 4 15 12.46 5.55
2 -4 -15 3.8 6.11
-2 4 -15 3.9 3.88
2 -4 -15 7.89 5.01
2 4 -15 6.18 4.45
-2 4 -15 -0.86 3.68
2 4 -15 4.81 4.38
-2 4 16 3.6 4.42
2 4 16 7.58 4.92
2 -4 -16 -1.92 4.85
-2 4 -16 14.13 4.91
2 4 -16 4.43 4.19
-2 4 -16 3.48 3.74
2 4 -16 5.95 4.43
-2 4 -16 11.51 4.76
-2 4 17 23.01 6.52
2 4 17 14.38 5.88
-2 4 -17 14.35 4.83
2 -4 -17 1.94 6.26
2 4 -17 6.28 4.52
-2 4 -17 13.28 4.74
2 4 -17 12.09 5.22
-2 4 -17 11.74 4.73
-2 4 18 1.23 4.78
2 4 18 -2.65 5.27
-2 4 -18 5.63 3.85
2 -4 -18 1.95 4.91
2 4 -18 2.7 3.76
-2 4 -18 3.6 4
2 4 -18 -1.04 3.33
-2 4 -18 2.21 4.16
-2 4 19 7.56 5.37
2 4 19 -2.75 5.47
-2 4 -19 -0.81 3.3
2 -4 -19 -3.95 4.64
2 4 -19 -2.73 4.29
-2 4 -19 0.91 3.25
2 4 -19 2.11 3.63
-2 4 -19 2.25 4.12
-2 4 20 1.27 4.23
2 4 20 2.79 5.11
-2 4 -20 2.47 3.88
2 -4 -20 -1.99 5.86
2 4 -20 3.67 4
-2 4 -20 1.85 3.4
2 4 -20 7.62 4.54
-2 4 -20 3.48 4.38
-2 4 21 2.6 4.8
2 4 21 4.34 5.33
-2 4 -21 4.14 3.65
2 -4 -21 12.05 6.46
2 4 -21 8.35 4.08
-2 4 -21 15.93 4.89
2 4 -21 15.47 4.95
-2 4 -21 4.73 4.61
-2 4 22 2.62 4.52
2 4 22 7.32 5.97
-2 4 -22 5.04 3.89
2 -4 -22 6.08 5.41
2 4 -22 -1.87 3.63
-2 4 -22 8.55 4.15
2 4 -22 6.83 4.53
-2 4 -22 3.64 4.18
-2 4 23 6.7 5.39
2 4 23 13.76 6.71
-2 4 -23 18.5 5.3
2 -4 -23 4.07 5.78
2 4 -23 13.21 4.96
-2 4 -23 10.55 4.74
2 4 -23 12.71 5.2
-2 4 -23 9.88 5.22
-2 4 -24 0.85 3.87
-2 4 -24 -1.26 4.75
3 -4 0 -4.59 7.63
-3 -4 0 -2.39 3.17
3 -4 0 8.85 4.79
3 4 0 1.57 3.13
3 -4 -1 20.63 9.83
3 -4 1 6.88 7.7
-3 -4 -1 19.95 4.92
-3 -4 1 7.95 3.75
3 -4 1 19.47 5.49
3 -4 -1 16.82 5.66
3 4 1 13.27 4.46
3 4 -1 15.87 4.84
3 -4 -2 -2.29 7.89
3 -4 2 -2.29 7.06
-3 -4 -2 4 3.7
3 -4 2 1.77 4.31
-3 -4 2 -2.38 3.08
3 -4 -2 6.19 4.59
3 4 2 5.42 3.58
3 4 -2 2.41 3.57
3 -4 -3 -2.29 6.77
3 -4 3 -2.29 6.77
3 -4 3 14.14 5.35
-3 -4 -3 4 3.66
-3 -4 3 9.49 4.25
3 -4 -3 11.5 5
3 4 3 6.92 3.31
3 4 -3 7.28 3.84
3 -4 -4 22.87 9.42
3 -4 4 29.75 10.06
3 -4 4 53.85 7.68
-3 -4 -4 27.25 5.87
3 -4 -4 32.71 7.02
-3 -4 4 44.18 6.74
3 4 -4 27.99 6.01
3 -4 -5 2.28 6.78
3 -4 5 8.82 5.02
3 -4 -5 14.12 5.43
-3 -4 -5 13.63 4.89
-3 -4 5 10.23 4.15
3 4 -5 9.98 4.31
-3 4 6 12.25 5.76
3 -4 6 19.36 5.5
3 -4 -6 10.58 4.98
-3 -4 -6 12.03 4.31
-3 -4 6 11.78 4.61
3 4 -6 12.59 4.63
-3 4 -6 12.5 4.13
3 4 -6 9.29 4.41
-3 4 7 10.08 5.28
3 4 7 8.48 5
-3 4 -7 0.77 3.37
3 -4 7 3.52 4.44
3 -4 -7 13.2 5.32
-3 -4 -7 13.65 4.36
-3 -4 7 6.26 3.77
3 4 -7 10.17 4.41
-3 4 -7 0.75 2.78
3 4 -7 4.28 3.91
-3 4 8 2.25 4.88
3 4 8 10.93 5.13
-3 4 -8 14.67 4.69
3 -4 8 14.9 5.36
3 -4 -8 14.93 5.7
-3 -4 -8 11.25 4.43
-3 -4 8 10.15 4.2
3 4 -8 11.96 4.45
-3 4 -8 18.31 4.78
3 4 -8 13.89 4.59
-3 4 9 14.7 5.72
3 4 9 9.99 5.17
3 -4 -9 25.28 7.73
-3 4 -9 1.56 3.67
3 -4 9 11.18 5.41
3 -4 -9 20.15 5.81
-3 -4 -9 13.66 4.39
3 4 -9 7.77 4.39
-3 4 -9 4.66 3.77
-3 4 9 8.36 3.49
3 4 -9 5.29 4.05
-3 4 10 14.82 6.01
3 4 10 10.15 5.41
3 -4 -10 5.47 5.49
-3 4 -10 17.31 5.16
3 -4 10 29.72 6.84
3 -4 -10 20.1 5.76
-3 -4 -10 17.68 5.16
3 4 -10 12.17 4.69
-3 4 -10 11.89 4.36
-3 4 10 17.31 4.47
3 4 -10 12.54 4.76
3 4 11 94.62 12.65
3 -4 -11 62.64 13.19
3 -4 11 125.9 13.11
3 -4 -11 111.36 12.58
3 4 -11 86.08 11.25
-3 4 -11 78.16 10.78
-3 4 11 109.02 10.92
3 4 -11 86.32 11.15
-3 4 -11 96.52 11.27
-3 4 11 114.7 13.26
-3 4 12 72.01 10.74
3 4 12 80.66 11.33
3 -4 -12 59.49 12.22
-3 4 -12 65.11 9.27
3 -4 12 91.34 10.67
3 -4 -12 80.48 10.44
3 4 -12 59.2 9.07
-3 4 -12 47.67 8.21
-3 4 12 70.41 8.48
3 4 -12 65.7 9.45
-3 4 13 10.57 5.56
3 4 13 12.29 5.92
3 -4 -13 9.39 6.71
-3 4 -13 4.06 4.83
3 -4 13 9.19 5.34
3 -4 -13 15.66 5.6
3 4 -13 8.04 4.61
-3 4 -13 10.03 4.57
-3 4 13 9.28 3.91
3 4 -13 6.57 4.23
-3 4 14 37.82 8.22
3 4 14 48.69 9.02
3 -4 -14 22.74 8.91
-3 4 -14 59.19 8.3
3 -4 14 73.93 9.26
3 -4 -14 65.17 9.12
3 4 -14 42.05 7.49
-3 4 -14 37.37 7.03
3 4 -14 33.49 7.19
-3 4 14 53.32 6.81
-3 4 15 66.73 10.36
3 4 15 59.63 10.44
3 -4 -15 34.45 10.55
-3 4 -15 69.02 8.91
3 -4 -15 77.63 10.18
3 4 -15 55.61 8.71
-3 4 -15 49.26 8.22
3 4 -15 66.44 9.5
-3 4 15 58.71 7.73
-3 4 16 49.17 9.08
3 4 16 43.45 8.94
3 -4 -16 36.75 9.87
-3 4 -16 50.79 7.54
3 4 -16 29.02 6.95
-3 4 -16 33.37 6.86
3 4 -16 47.59 8.13
-3 4 17 44.9 8.38
3 4 17 30.12 8.36
3 -4 -17 15.6 7.16
-3 4 -17 36.84 6.58
3 4 -17 40.09 7.13
-3 4 -17 36.5 6.75
3 4 -17 35.59 7.09
-3 4 18 6.17 5.15
3 4 18 1.39 4.94
3 -4 -18 5.91 6.07
-3 4 -18 7.57 4.49
3 4 -18 1.84 4.02
-3 4 -18 -0.9 3.69
3 4 -18 2.06 3.9
-3 4 19 8.7 5.53
3 4 19 4.23 5.02
3 -4 -19 1.99 5.32
-3 4 -19 3.41 3.88
3 4 -19 5.54 4.2
-3 4 -19 2.74 3.46
3 4 -19 5.31 4.44
-3 4 20 6.32 5.03
3 4 20 1.47 5.24
3 -4 -20 -4.01 6.67
-3 4 -20 2.58 3.66
3 4 -20 -0.93 3.59
-3 4 -20 2.78 3.69
3 4 -20 10.76 4.59
-3 4 -20 2.32 4.39
-3 4 21 -2.55 5.07
3 4 21 2.99 4.8
-3 4 -21 2.61 3.8
3 -4 -21 2.02 5.97
3 4 -21 6.55 4.25
-3 4 -21 0.94 3.56
3 4 -21 17.73 5.58
-3 4 -21 11.86 5.38
-3 4 22 -5.19 5.03
3 4 22 7.83 6.38
-3 4 -22 3.5 4.12
3 -4 -22 2.04 5.46
3 4 -22 3.77 4.02
-3 4 -22 3.81 3.79
3 4 -22 4.56 4.54
-3 4 -22 3.63 4.17
3 4 -23 0.95 3.49
-3 4 -23 9.87 4.91
4 -4 0 32.83 10.39
-4 -4 0 25.13 5.49
4 -4 0 18.27 5.8
4 4 0 34.21 6.14
4 -4 1 -2.34 6.26
-4 -4 -1 -0.81 3.46
-4 -4 1 3.24 4.13
4 -4 1 -5.81 4.11
4 -4 -1 4.15 3.97
4 4 -1 -0.82 3.34
4 -4 -2 18.74 9.22
4 -4 2 18.74 8.99
-4 -4 -2 17.91 5.07
-4 -4 2 20.99 5.52
4 -4 2 23.24 5.67
4 -4 -2 32.36 6.13
4 4 -2 23.96 5.35
4 -4 -3 9.36 7.89
4 -4 3 18.74 8.92
-4 4 -3 23.43 5.38
-4 -4 -3 19.56 5.12
-4 -4 3 15.3 4.53
4 -4 3 14.92 4.99
4 -4 -3 21.57 5.31
4 4 -3 13.32 4.79
4 -4 -4 7.01 7.78
4 -4 4 2.34 7.51
-4 4 -4 0.81 3.61
-4 -4 -4 4.08 4.17
-4 -4 4 3.21 3.57
4 -4 4 1.66 3.76
4 -4 -4 5.8 3.9
4 4 -4 -2.52 3.66
4 -4 -5 2.33 7.77
4 -4 5 -9.35 7.78
-4 4 -5 9.84 4.39
-4 -4 -5 8.99 4.31
-4 -4 5 1.6 3.28
4 -4 5 4.96 3.76
4 -4 -5 9.11 4.43
4 4 -5 6.78 3.85
4 -4 -6 -4.66 7.18
4 -4 6 9.36 7.5
-4 4 -6 -3.29 4.21
-4 -4 -6 2.46 3.41
-4 -4 6 -0.8 3.26
4 -4 6 1.65 4.02
4 -4 -6 -1.65 4.09
4 4 -6 2.56 3.22
4 -4 -7 3.54 4.98
4 -4 -7 -4.66 7.47
4 -4 7 7.01 7.49
-4 4 -7 -5.75 4.9
-4 -4 -7 9.01 4.06
-4 -4 7 -0.8 3.61
4 -4 7 7.42 4.02
4 -4 -7 2.48 3.67
4 4 -7 -0.87 4.09
-4 4 7 2 3.24
-4 4 8 -1.16 5.03
4 -4 -8 5.38 5.04
4 -4 -8 -4.65 6.86
4 -4 8 9.32 7.75
-4 4 -8 -4.98 5.17
-4 -4 -8 -0.82 3.26
-4 -4 8 2.38 3.53
4 -4 8 3.43 4.64
4 -4 -8 6.59 4.01
4 4 -8 1.75 4.12
-4 4 -8 0.77 3.28
-4 4 8 -0.66 3.13
-4 4 9 4.64 5.19
4 -4 -9 19.91 7.23
4 -4 -9 6.96 7.46
4 -4 9 2.33 6.24
-4 4 -9 4.99 4.66
-4 -4 -9 16.4 4.88
-4 -4 9 8.71 3.97
4 -4 9 4.28 4
4 -4 -9 16.43 4.94
4 4 -9 0.88 4.49
-4 4 -9 15.66 4.17
4 4 -9 11.9 5.06
-4 4 9 8.64 3.7
-4 4 10 3.49 5.18
4 4 10 -1.19 4.1
4 -4 -10 5.49 5.86
4 -4 -10 -2.31 7.41
4 -4 10 -2.32 7.14
-4 4 -10 5.05 4.03
-4 -4 -10 1.64 3.57
-4 -4 10 0.79 3.71
4 -4 10 0.85 4.01
4 -4 -10 -1.71 4.02
4 4 -10 0.89 3.97
-4 4 -10 0.8 3.09
4 4 -10 3.71 3.78
-4 4 10 1.33 3.34
-4 4 11 7.02 5.1
4 4 11 1.21 4.45
4 -4 -11 1.85 5.7
4 -4 -11 -2.31 6.8
4 -4 11 4.62 7.97
-4 4 -11 0.84 3.98
-4 -4 -11 4.1 4
-4 -4 11 -0.79 3.43
4 -4 11 2.55 4.41
4 -4 -11 7.67 4.55
4 4 -11 -0.9 3.75
-4 4 -11 4.06 3.69
4 4 -11 1.88 4.01
-4 4 11 7.07 3.62
-4 4 12 20.02 6.93
4 4 12 32.05 7.39
4 -4 -12 44.78 9.89
4 -4 -12 22.97 9.58
4 -4 12 11.54 8.7
-4 4 -12 28.84 6.19
-4 -4 -12 24.53 5.68
-4 -4 12 27.37 5.59
4 -4 12 28.81 6.28
4 -4 -12 39.9 6.93
4 4 -12 19.89 5.71
-4 4 -12 28.04 5.81
4 4 -12 31.47 6.77
-4 4 12 37.32 5.86
-4 4 13 13.01 5.92
4 4 13 25.69 6.91
4 -4 -13 20.75 7.55
-4 4 -13 16.31 5.25
4 -4 -13 9.15 7.92
4 -4 13 4.6 6.83
-4 -4 -13 12.25 4.62
-4 -4 13 10.91 4.41
4 -4 13 6.2 4.99
4 -4 -13 11.83 4.83
4 4 -13 2.74 3.98
-4 4 -13 13.43 4.86
4 4 -13 19.32 5.89
-4 4 13 14.32 4.05
-4 4 14 39.5 7.73
4 4 14 28.72 7.28
4 -4 -14 19.03 7.58
-4 4 -14 31.1 6.39
4 -4 -14 9.11 8.04
4 -4 14 9.16 7.82
-4 -4 -14 26.92 5.84
-4 -4 14 27.93 5.54
4 -4 -14 20.21 5.63
4 4 -14 21.08 5.69
-4 4 -14 26.48 5.9
4 4 -14 25.55 6.43
-4 4 14 24.76 4.98
-4 4 15 26.6 6.71
4 4 15 13.68 6.05
4 -4 -15 11.54 7.33
-4 4 -15 6.99 4.59
-4 -4 -15 18.72 5.23
4 -4 -15 15.92 5.27
4 4 -15 19.42 5.31
-4 4 -15 13.85 4.61
4 4 -15 9.96 4.89
-4 4 15 16.32 4.16
-4 4 16 8.5 5.18
4 4 16 8.34 5.53
4 -4 -16 1.94 5.19
-4 4 -16 1.76 4.15
4 4 -16 1.85 3.69
-4 4 -16 2.64 3.5
4 4 -16 10.12 5.1
-4 4 16 -0.59 2.78
-4 4 17 1.22 4.49
4 4 17 5.65 5.33
4 -4 -17 -1.96 5.23
-4 4 -17 -0.88 3.83
4 4 -17 1.87 3.98
-4 4 -17 -1.78 3.72
4 4 -17 -1.03 3.87
-4 4 17 2.3 3.15
-4 4 18 -3.69 4.77
4 4 18 4.45 5.11
4 -4 -18 -1.98 6.1
-4 4 -18 -1.78 3.95
4 4 -18 1.87 3.62
-4 4 -18 -0.91 3.6
4 4 -18 4.19 4.16
-4 4 19 -1.24 4.94
4 4 19 4.52 5.19
4 -4 -19 2 5.63
-4 4 -19 1.79 3.81
4 4 -19 -1.88 3.73
-4 4 -19 0.92 3.37
4 4 -19 -4.28 4.36
-4 4 20 -5.05 4.76
4 4 20 6.31 6.28
4 -4 -20 2.02 5.07
-4 4 -20 -0.9 3.77
4 4 -20 1.89 3.95
-4 4 -20 0.93 3.53
4 4 -20 -1.09 4.21
-4 4 21 2.54 4.92
4 4 21 3.2 5.52
-4 4 -21 -0.91 4.19
4 4 -21 2.85 4.38
-4 4 -21 -3.8 3.68
4 4 -22 -3.82 4.17
-5 -4 0 -1.8 6.21
5 -4 0 11.98 8.25
-5 4 0 -5.05 4.11
-5 -4 0 -0.83 3.54
5 -4 0 -3.23 3.8
-5 -4 1 3.6 6.2
-5 -4 -1 5.42 6.23
5 -4 -1 -2.4 6.74
5 -4 1 4.79 7.07
-5 4 -1 0.85 4
-5 -4 -1 4.15 3.47
-5 -4 1 1.65 3.13
5 -4 1 2.42 3.52
5 -4 -1 8.88 4.66
-5 -4 2 1.8 6.21
-5 -4 -2 1.81 5.83
5 -4 -2 2.39 7.4
5 -4 2 16.84 9.82
-5 4 -2 7.7 4.78
-5 -4 -2 8.33 4.42
-5 -4 2 2.48 3.41
5 -4 2 20.17 5.35
5 -4 -2 12.11 4.95
5 4 -2 12.82 4.66
-5 -4 3 3.58 6.18
-5 -4 -3 5.44 6.26
5 -4 -3 -2.4 7.41
5 -4 3 2.4 8.01
-5 4 -3 9.47 5.15
-5 -4 -3 5.84 4.09
-5 -4 3 3.29 3.97
5 -4 3 4.84 4.32
5 -4 -3 19.36 5.14
5 4 -3 4.3 4.07
-5 -4 4 51.79 11.04
-5 -4 -4 34.49 10.11
5 -4 -4 35.98 11.68
5 -4 4 43.23 12.07
-5 4 -4 49.51 8.38
-5 -4 -4 40.93 7.37
-5 -4 4 57.44 8.3
5 -4 4 59.62 8.43
5 -4 -4 72.55 8.67
5 4 -4 49.37 7.85
-5 4 -5 83.76 10.96
-5 -4 5 69.45 13.47
-5 -4 -5 63.64 12.81
5 -4 -5 79.67 13.17
5 -4 -5 47.9 13.53
5 -4 5 64.79 14.21
5 -4 5 94.9 10.5
5 -4 -5 83.72 10.23
-5 -4 -5 95.4 10.61
-5 -4 5 76.95 9.93
5 4 -5 83.75 10.34
-5 4 5 78.14 9.42
-5 -4 6 15.98 7.74
-5 -4 -6 25.47 8.56
5 -4 -6 26.31 8.69
5 -4 -6 23.9 9.4
5 -4 6 26.35 10.34
-5 4 -6 24.53 5.95
-5 -4 -6 14.24 4.93
-5 -4 6 20.4 5.53
5 -4 6 32.16 6.55
5 -4 -6 26.52 5.86
5 4 -6 18.44 5.59
-5 4 6 24.64 5.28
-5 -4 7 10.63 6.86
-5 -4 -7 -5.46 6.87
5 -4 -7 -3.54 5.46
5 -4 -7 7.15 7.94
5 -4 7 7.17 7.67
-5 4 -7 -4.42 4.72
-5 -4 -7 3.35 4.15
-5 -4 7 0.81 3.31
5 -4 7 3.29 3.66
5 -4 -7 -1.6 3.57
5 4 -7 0.89 3.69
-5 4 7 -0.69 3.05
-5 -4 8 -3.53 5.88
-5 -4 -8 1.82 5.61
5 -4 -8 1.79 5.04
5 -4 -8 4.76 7.33
5 -4 8 -2.39 7.65
-5 4 -8 -8.87 5.23
-5 -4 -8 2.52 3.42
-5 -4 8 1.62 3.38
5 -4 8 3.28 4.13
5 -4 -8 0.82 3.94
5 4 -8 -3.57 4.42
-5 4 8 -2.74 3.39
-5 -4 9 1.76 5.66
-5 -4 -9 3.64 5.86
5 -4 -9 5.43 5.11
5 -4 -9 18.98 9.21
5 -4 9 9.53 7.35
-5 4 -9 11.48 4.8
-5 -4 -9 8.39 4.74
-5 -4 9 4.03 3.61
5 -4 9 4.91 4.21
5 -4 -9 13.94 5.07
5 4 -9 1.81 3.81
-5 4 9 4.64 3.85
-5 4 10 27.43 7.12
-5 -4 10 12.27 7.14
-5 -4 -10 18.22 7.92
5 -4 -10 25.61 8.28
5 -4 -10 14.2 9.3
5 -4 10 11.88 8.85
-5 4 -10 28.54 6.34
-5 -4 -10 18.47 5.02
-5 -4 10 18.47 5.14
5 -4 10 26.12 5.83
5 -4 -10 28.62 6.06
5 4 -10 17.36 5.61
-5 4 10 23.25 4.97
-5 4 11 8.37 5.53
-5 -4 11 -8.74 7.3
-5 -4 -11 1.82 5.84
5 -4 -11 11.1 6.16
5 -4 -11 7.07 7.56
5 -4 11 2.38 7.32
-5 4 -11 4.46 4.05
-5 -4 -11 5.86 4.08
-5 -4 11 1.6 4.03
5 -4 11 -3.26 4.52
5 -4 -11 0.81 3.97
5 4 -11 0.92 4.09
-5 4 -11 3.24 3.38
5 4 -11 3.9 4.07
-5 4 11 6.44 3.76
-5 4 12 60 9.7
-5 -4 12 27.89 9.11
-5 -4 -12 36.44 10.27
5 -4 -12 37.36 9.39
5 -4 -12 44.76 11.76
5 -4 12 26.04 9.98
-5 4 -12 54.09 8.3
-5 -4 -12 46.85 7.36
-5 -4 12 51.01 7.6
5 -4 12 59.35 8.6
5 -4 -12 44.67 7.78
5 4 -12 57.52 8.26
-5 4 -12 37.97 6.98
5 4 -12 45.35 8
-5 4 12 46.44 6.72
-5 4 13 39.71 8.03
5 4 13 34.2 8.12
-5 -4 13 12.15 7.34
-5 -4 -13 20.01 8.63
5 -4 -13 20.78 7.76
5 -4 -13 11.73 8.82
5 -4 13 35.39 10.67
-5 4 -13 29.82 6.53
-5 -4 -13 30.1 6.13
-5 -4 13 25.41 5.41
5 -4 13 35.81 6.75
5 -4 -13 26.68 6.25
5 4 -13 28.01 6.3
-5 4 -13 21.85 5.43
5 4 -13 24.92 6.26
-5 4 13 33.8 5.55
-5 4 14 37.54 7.83
5 4 14 33.42 8.39
5 -4 -14 13.39 7.52
5 -4 -14 14.01 8.57
5 -4 14 28.18 10.24
-5 4 -14 24.49 6.19
-5 -4 -14 28.38 6.31
5 -4 -14 36.51 6.65
5 4 -14 17.82 5.69
-5 4 -14 33.4 6.32
5 4 -14 43.38 7.43
-5 4 14 39.07 5.83
-5 4 15 23.09 6.34
5 4 15 19 6.49
5 -4 -15 17.34 6.97
-5 4 -15 20.16 5.96
-5 -4 -15 17.49 5.34
5 -4 -15 18.17 5.09
5 4 -15 12.29 4.78
-5 4 -15 26.14 5.57
5 4 -15 22.5 5.82
-5 4 15 10.74 3.92
-5 4 16 11.05 5.35
5 4 16 7.44 5.46
5 -4 -16 3.9 4.6
-5 4 -16 2.76 4.02
5 4 -16 10.43 4.47
-5 4 -16 6.2 3.95
5 4 -16 -2.08 4.03
-5 4 16 1.19 2.97
-5 4 17 6.19 4.55
5 4 17 4.54 5.71
5 -4 -17 1.97 4.97
-5 4 -17 6.48 4.59
5 4 -17 -0.96 3.9
-5 4 -17 3.59 3.83
5 4 -17 10.51 4.68
-5 4 17 0.58 2.89
-5 4 18 1.24 4.29
5 4 18 11.15 6.49
5 -4 -18 3.98 6.13
-5 4 -18 3.75 3.91
5 4 -18 1.91 3.99
-5 4 -18 5.47 3.72
5 4 -18 2.13 4.14
-5 4 18 1.14 2.97
-5 4 19 3.75 4.88
5 4 19 12.95 6.77
5 -4 -19 4.02 5.09
-5 4 -19 9.32 4.72
5 4 -19 5.73 3.93
-5 4 -19 10.18 4.31
5 4 -19 5.4 4.64
-5 4 19 11.44 3.6
-5 4 20 1.26 4.35
5 4 20 8.23 6.38
5 4 -20 4.81 4.02
-5 4 20 2.25 2.84
-6 -4 0 3.68 5.9
6 -4 0 -4.92 7.26
-6 -4 0 2.61 3.63
6 -4 0 5.75 4
-6 -4 1 3.67 5.42
-6 -4 -1 1.84 5.19
6 -4 -1 2.46 7.26
6 -4 1 2.46 6.92
-6 -4 -1 1.74 3.96
-6 -4 1 6.07 4.16
6 -4 1 4.11 3.73
6 -4 -1 5.75 4.51
-6 -4 2 7.33 7.1
-6 -4 -2 -1.85 5.69
6 -4 -2 -2.46 6.91
6 -4 2 -12.3 8.18
-6 4 -2 -2.71 4.69
-6 -4 -2 -2.62 3.64
-6 -4 2 0.86 4
6 -4 2 4.1 3.93
6 -4 -2 18.88 5
-6 -4 3 12.78 7.29
-6 -4 -3 9.25 6.82
6 -4 -3 9.82 8.48
6 -4 3 7.38 8.77
-6 4 -3 13.66 5.41
-6 4 -3 11.76 4.51
-6 -4 -3 12.24 5.37
-6 -4 3 12.94 4.65
6 -4 3 15.58 4.77
6 -4 -3 2.46 3.91
-6 4 3 2.11 3.43
-6 -4 4 7.29 6.06
-6 -4 -4 3.71 5.94
6 -4 -4 2.45 6.9
6 -4 4 -4.91 8.17
-6 4 -4 -0.92 4.39
-6 4 -4 2.38 3.39
-6 -4 -4 0.88 3.82
-6 -4 4 -1.7 3.55
6 -4 4 -0.82 3.92
6 -4 -4 3.28 3.64
6 4 -4 2.69 3.82
-6 4 4 5.62 3.59
-6 -4 5 -5.45 6.85
-6 -4 -5 -5.57 7.19
6 -4 -5 2.45 8.15
6 -4 5 -2.45 6.54
-6 4 -5 -2.77 4.27
-6 -4 -5 2.63 3.74
-6 -4 5 1.7 3.77
6 -4 5 5.73 3.98
6 -4 -5 0.82 3.64
6 4 -5 6.3 4.16
-6 4 5 0.7 3.37
-6 -4 6 -1.81 6.02
-6 -4 -6 3.71 6.18
6 -4 -6 -2.44 6.87
6 -4 6 -4.9 7.85
-6 4 -6 -1.85 4.36
-6 -4 -6 0.88 3.58
-6 -4 6 2.54 3.19
6 -4 6 1.63 3.98
6 -4 -6 4.9 4.24
6 4 -6 -0.91 3.78
-6 4 6 -2.81 3.8
-6 -4 7 7.22 6.43
-6 -4 -7 5.58 6.41
6 -4 -7 3.53 5.89
6 -4 -7 -2.44 6.86
6 -4 7 -2.44 7.22
-6 4 -7 5.6 4.49
-6 -4 -7 6.96 4.33
-6 -4 7 5.9 4.05
6 -4 7 8.15 4.6
6 -4 -7 4.08 4.31
6 4 -7 3.65 3.82
-6 4 7 6.82 3.55
-6 -4 8 3.61 6.22
-6 -4 -8 3.72 6.19
6 -4 -8 -1.79 4.77
6 -4 -8 -2.43 8.09
6 -4 8 -2.45 7.56
-6 4 -8 -4.69 4.93
-6 -4 -8 1.1 4.04
-6 -4 -8 0.87 3.38
-6 -4 8 0.84 3.5
6 -4 8 -2.44 4.15
6 -4 -8 5.7 4.52
6 4 -8 5.5 3.99
-6 4 8 4.1 3.27
-6 -4 9 3.6 5.78
-6 -4 -9 -5.6 7.43
6 -4 -9 1.81 5.34
6 -4 -9 16.98 8.36
6 -4 9 19.57 9.23
-6 4 -9 4.7 4.66
-6 -4 -9 3.33 4.43
-6 -4 -9 5.23 3.96
-6 -4 9 5.02 3.95
6 -4 9 9.73 4.15
6 -4 -9 1.62 4.03
6 4 -9 4.62 3.77
-6 4 9 1.99 3.29
-6 -4 10 1.79 6.4
-6 -4 -10 5.6 6.67
6 -4 -10 9.15 5.67
6 -4 -10 4.86 7.51
6 -4 10 2.44 7.85
-6 4 -10 3.79 4.34
-6 -4 -10 11.26 5.6
-6 -4 -10 10.45 4.93
-6 -4 10 13.34 4.67
6 -4 10 4.93 4.3
6 -4 -10 8.09 4.42
6 4 -10 12.08 4.79
-6 4 10 10.62 3.92
-6 -4 11 14.29 7.16
-6 -4 -11 11.19 7.09
6 -4 -11 18.48 7.93
6 -4 -11 14.53 9.18
6 -4 11 2.43 8.14
-6 4 -11 15.09 5.31
-6 -4 -11 21.76 6.58
-6 -4 -11 12.19 4.73
-6 -4 11 9.13 4
6 -4 11 14.72 5.01
6 -4 -11 12.1 4.68
6 4 -11 5.66 4.37
-6 4 11 14.83 4.42
-6 4 12 8.58 5.23
-6 -4 12 -1.78 5.92
-6 -4 -12 1.86 5.75
6 -4 -12 1.87 5.77
6 -4 -12 2.41 7.12
6 -4 12 2.42 6.82
-6 4 -12 5.71 4.48
-6 -4 -12 8.08 5.63
-6 -4 -12 4.35 4.03
-6 -4 12 5.72 3.99
6 -4 12 6.52 4.17
6 -4 -12 0.82 3.84
6 4 -12 1.9 3.69
-6 4 12 1.26 2.86
-6 4 13 1.23 4.91
-6 -4 13 3.54 6.12
-6 -4 -13 13.03 6.64
6 -4 -13 -1.89 5.33
6 -4 -13 2.4 7.41
6 -4 13 12.07 8.05
-6 4 -13 8.55 4.73
-6 -4 -13 18.9 6.06
-6 -4 -13 13.04 4.67
-6 -4 13 9.76 4.13
6 -4 13 5.68 4.18
6 -4 -13 18.68 5.13
6 4 -13 2.87 3.54
6 4 -13 11.36 4.71
-6 4 13 5.04 3.54
-6 4 14 2.46 4.37
-6 -4 14 -3.53 5.88
6 -4 -14 -1.91 5.37
6 -4 14 -2.41 7.12
-6 4 -14 0.95 3.97
-6 -4 -14 4.77 5.3
-6 -4 -14 0.86 3.89
6 -4 -14 -1.62 3.52
6 4 -14 1.92 4.1
-6 4 -14 -0.86 3.05
6 4 -14 6.26 4.25
-6 4 14 3.08 3.2
-6 4 15 8.65 5.5
6 -4 -15 -1.93 5.16
-6 4 -15 5.76 4.19
-6 -4 -15 6.05 5.27
6 -4 -15 1.61 3.65
6 4 -15 4.83 4.12
-6 4 -15 -0.87 3.2
6 4 -15 4.21 4.08
-6 4 15 -1.81 2.98
-6 4 16 4.95 5.18
6 4 16 6.42 5.9
6 -4 -16 7.8 7.16
-6 4 -16 2.89 4.3
-6 -4 -16 3.68 4.9
6 4 -16 1.94 3.67
6 4 -16 4.26 4.36
-6 4 16 10.26 3.46
-6 4 17 5 4.58
6 4 17 1.63 5.24
6 -4 -17 1.98 5.56
-6 -4 -17 -1.24 4.81
6 4 -17 -0.98 3.88
-6 4 17 5.32 3.24
-6 4 18 -6.26 4.85
6 4 18 1.71 5.68
-6 -4 -18 1.27 4.78
6 4 -18 -0.98 3.79
-6 -4 -19 2.56 4.55
-7 -4 0 3.77 7.49
7 -4 0 5.05 8.1
-7 -4 0 3.62 4.18
7 -4 0 3.33 4.26
-7 4 0 -0.72 3.25
-7 -4 1 7.52 7.11
-7 -4 -1 -1.89 6.08
7 -4 -1 5.05 7.12
7 -4 1 2.53 8.12
-7 4 -1 7.99 4.06
-7 -4 -1 7.25 3.99
-7 -4 1 11.74 4.78
7 -4 1 8.32 4.53
7 -4 -1 17.49 5.42
-7 4 1 5.01 3.59
-7 -4 2 33.72 9.4
-7 -4 -2 30.24 9.17
7 -4 -2 27.75 10.99
7 -4 2 7.58 8.7
-7 4 -2 25.8 5.73
-7 -4 -2 27.26 6.25
-7 -4 2 39.59 6.97
7 -4 2 44.1 7.15
7 -4 -2 29.97 6.29
-7 4 2 37.3 6.23
-7 4 -3 111.09 12.36
-7 -4 3 76.62 14.34
-7 -4 -3 90.9 15.16
7 -4 -3 80.68 16.63
7 -4 3 75.7 16.49
-7 4 -3 94.17 11.11
7 -4 3 81.48 10.99
7 -4 -3 86.51 11.14
-7 -4 -3 89.24 11.29
-7 -4 3 90.64 11.38
-7 4 3 122.7 11.48
-7 -4 4 35.42 9.73
-7 -4 -4 37.94 10.18
7 -4 -4 22.66 9.7
7 -4 4 22.69 9.46
-7 4 -4 28.91 6.93
-7 4 -4 28.08 6.2
-7 -4 -4 29.18 6.44
-7 -4 4 25.06 6.23
7 -4 4 26.58 6.1
7 -4 -4 30.76 7.02
-7 4 4 23.01 5.56
-7 -4 5 5.57 6.48
-7 -4 -5 7.6 6.83
7 -4 -5 7.54 8.12
7 -4 5 -2.52 7.15
-7 4 -5 11.64 5.27
-7 4 -5 22.6 5.26
-7 -4 -5 16.44 5.24
-7 -4 5 10.7 4.67
7 -4 5 24.26 5.85
7 -4 -5 21.58 5.47
-7 4 5 14.64 4.62
-7 -4 6 14.81 7.56
-7 -4 -6 7.6 6.34
7 -4 -6 17.56 9.21
7 -4 6 20.12 9.5
-7 4 -6 5.85 4.45
-7 4 -6 0.84 3.47
-7 -4 -6 8.23 4.9
-7 -4 6 12.44 5.14
7 -4 6 8.36 4.54
7 -4 -6 8.29 4.63
7 4 -6 3.74 3.93
-7 4 6 4.89 3.6
-7 -4 7 7.38 6.96
-7 -4 -7 1.9 6.1
7 -4 -7 5.01 8.9
7 -4 7 -10.04 9.47
-7 4 -7 3.91 4.35
-7 4 -7 -0.85 3.4
-7 -4 -7 0.92 3.55
-7 -4 7 5.31 3.94
7 -4 7 4.17 4.39
7 -4 -7 7.51 4.2
7 4 -7 0.94 3.83
-7 4 7 0.68 3.3
-7 -4 8 1.84 6.12
-7 -4 -8 1.9 5.86
7 -4 -8 7.49 8.59
7 -4 8 2.5 7.04
-7 4 -8 -1.97 4.56
-7 -4 -8 2.34 4.99
-7 -4 -8 3.66 4.31
-7 -4 8 2.62 3.88
7 -4 8 -0.83 3.55
7 -4 -8 1.66 3.7
7 4 -8 7.55 4.2
-7 4 8 0.66 3.16
-7 -4 9 20.15 8.3
-7 -4 -9 26.63 9.7
7 -4 -9 2.49 8.71
7 -4 9 27.48 10.06
-7 4 -9 12.84 5.36
-7 -4 -9 23.56 6.97
-7 -4 -9 21.05 5.69
-7 -4 9 20 5.37
7 -4 9 29.02 6.15
7 -4 -9 27.39 5.89
7 4 -9 21.81 5.63
-7 4 9 29.04 5.19
-7 -4 10 5.47 5.85
-7 -4 -10 -1.9 6.33
7 -4 -10 12.4 8.82
7 -4 10 4.98 7.34
-7 4 -10 -2.99 4.51
-7 -4 -10 1.19 4.72
-7 -4 -10 3.63 4.26
-7 -4 10 -2.6 3.77
7 -4 10 -2.48 3.89
7 -4 -10 1.66 3.89
7 4 -10 -1.91 3.79
-7 4 10 -0.64 2.92
-7 -4 11 1.83 5.63
-7 -4 -11 -7.6 6.97
7 -4 -11 14.77 6.57
7 -4 -11 2.47 7.92
7 -4 11 2.5 7.03
-7 4 -11 -3.99 4.25
-7 -4 -11 -1.2 4.77
-7 -4 -11 0.91 3.69
7 -4 11 -2.47 3.81
7 -4 -11 -1.65 3.44
7 4 -11 -0.96 4.18
-7 4 11 1.29 3.2
-7 -4 12 -1.82 5.85
-7 -4 -12 3.82 7.42
7 -4 -12 11.18 6.84
7 -4 -12 9.91 8.82
7 -4 12 2.49 7.68
-7 4 -12 7.92 4.67
-7 -4 -12 1.22 4.74
-7 -4 -12 4.53 4.35
-7 -4 12 3.43 4.12
7 -4 12 14.92 4.96
7 -4 -12 3.28 4.08
7 4 -12 3.86 4.3
-7 4 12 3.79 3.2
-7 4 13 40.04 8.17
-7 -4 13 16.31 8.12
-7 -4 -13 30.53 9.79
7 -4 -13 22.66 7.93
7 -4 -13 22.19 10.46
7 -4 13 7.44 8.18
-7 4 -13 39.95 7.25
-7 -4 -13 33.21 7.74
-7 -4 -13 37.96 6.81
-7 -4 13 21.35 5.45
7 -4 13 23.94 6.09
7 -4 -13 17.17 5.54
7 4 -13 39.09 7.11
-7 4 14 -1.25 4.6
-7 -4 14 7.22 6.81
7 -4 -14 1.91 6.12
7 -4 14 2.47 7.61
-7 -4 -14 1.26 5.13
-7 -4 -14 9.02 4.18
7 -4 -14 2.47 4.21
7 4 -14 5.89 4.01
7 -4 -15 5.79 5.71
-7 -4 -15 3.8 5.42
7 -4 -15 7.36 4.26
-8 -4 0 9.51 7.18
8 -4 0 -2.57 8.57
-8 4 0 7.27 3.75
-8 -4 0 1.89 3.86
8 -4 0 11.95 4.81
-8 4 0 2.18 3.19
-8 -4 1 -1.9 6.31
-8 -4 -1 -5.72 6.56
8 -4 -1 2.57 8.24
8 -4 1 -7.72 8.56
-8 4 -1 2.47 3.73
-8 -4 -1 2.84 3.76
-8 -4 1 -4.71 4.35
8 -4 1 -0.85 3.87
8 -4 -1 1.71 4.09
-8 4 -1 0.73 3.42
-8 4 1 2.92 3.55
-8 -4 2 1.89 6.07
-8 -4 -2 5.72 6.58
8 -4 -2 15.42 8.85
8 -4 2 -2.57 7.92
-8 4 -2 1.68 3.34
-8 -4 -2 1.9 3.38
-8 -4 2 4.7 4.18
8 -4 2 5.12 4.16
8 -4 -2 1.71 4.3
-8 4 -2 2.18 3.71
-8 4 2 4.24 3.27
-8 -4 3 13.21 7.14
-8 -4 -3 1.91 6.61
8 -4 -3 5.14 7.24
8 -4 3 2.57 6.88
-8 4 -3 19.42 4.96
-8 -4 -3 15.21 5.51
-8 -4 3 9.37 4.82
8 -4 3 5.11 3.98
8 -4 -3 6.82 4.71
-8 4 -3 3.62 3.52
-8 4 3 10.64 4.23
-8 -4 4 5.73 6.35
-8 -4 -4 -1.92 5.9
8 -4 -4 -2.56 8.53
8 -4 4 5.18 9.21
-8 4 -4 3.02 4.48
-8 4 -4 10.29 4.39
-8 -4 -4 -0.95 3.79
-8 -4 4 4.67 4.24
8 -4 4 -0.85 3.94
8 -4 -4 -0.85 4.01
-8 4 -4 4.34 3.35
-8 4 4 5.51 3.73
-8 -4 5 -1.9 6.98
-8 -4 -5 -5.84 6.7
8 -4 -5 2.56 7.88
8 -4 5 -7.75 8.6
-8 4 -5 -2.03 4.77
-8 4 -5 0.86 3.69
-8 -4 -5 1.91 4.24
-8 -4 5 -0.93 3.7
8 -4 5 2.55 3.78
8 -4 -5 -1.7 3.71
-8 4 5 0.69 3.07
-8 -4 6 1.9 6.31
-8 -4 -6 1.95 6.48
8 -4 -6 2.57 8.26
8 -4 6 10.32 8.27
-8 4 -6 6.12 4.71
-8 4 -6 0.88 3.82
-8 -4 -6 -0.95 3.98
-8 -4 6 1.85 3.96
8 -4 6 -4.24 3.85
8 -4 -6 3.4 4.07
-8 -4 7 5.67 7.14
-8 -4 -7 7.79 6.49
8 -4 -7 -7.71 7.58
8 -4 7 -2.57 7.94
-8 4 -7 3.07 4.48
-8 4 -7 0.88 3.44
-8 -4 -7 2.86 3.9
-8 -4 7 7.39 4.36
8 -4 7 5.13 4.24
8 -4 -7 5.93 4.53
-8 -4 8 7.53 6.92
-8 -4 -8 17.53 7.95
8 -4 -8 5.12 8.23
8 -4 8 -2.57 7.24
-8 4 -8 1.79 3.4
-8 -4 -8 12.42 4.9
-8 -4 8 6.44 4.03
8 -4 8 10.23 4.57
8 -4 -8 5.07 4.34
-8 -4 9 3.75 6.7
-8 -4 -9 15.58 7.58
8 -4 -9 5.11 7.89
8 -4 9 5.12 7.58
-8 -4 -9 27.28 7.18
-8 -4 9 7.33 4.21
8 -4 9 7.65 4.46
8 -4 10 -2.55 7.53
-8 -4 -10 6.24 5.55
8 -4 10 -4.23 3.61

_iucr_refine_fcf_details         
;
data_ANB
_computing_structure_refinement   'olex2.refine (Bourhis et al., 2015)'
_shelx_refln_list_code            4
loop_
  _space_group_symop_id
  _space_group_symop_operation_xyz
  1  x,y,z
  2  -x,-y,z+1/2
  3  -x+1/2,y+1/2,z+1/2
  4  x+1/2,-y+1/2,z

_space_group_crystal_system       orthorhombic
_space_group_IT_number            33
_space_group_name_H-M_alt         'P n a 21'
_space_group_name_Hall            ' P 2c -2n'
_symmetry_space_group_name_H-M    'P n a 21'
_symmetry_space_group_name_Hall   ' P 2c -2n'
_symmetry_Int_Tables_number       33
_cell_length_a                    12.2108(5)
_cell_length_b                    3.8608(2)
_cell_length_c                    35.1524(15)
_cell_angle_alpha                 90
_cell_angle_beta                  90
_cell_angle_gamma                 90
_cell_volume                      1657.21(13)
loop_
  _refln_index_h
  _refln_index_k
  _refln_index_l
  _refln_F_squared_calc
  _refln_F_squared_meas
  _refln_F_squared_sigma
  _refln_F_squared_weight
  _refln_observed_status
-15 -1 -1 10.179 25.184 15.645 101.402 o
-14 -1 -16 4.933 13.550 17.072 92.221 o
-14 -1 -15 72.812 80.856 26.298 29.294 o
-14 -1 -14 103.045 74.789 19.568 37.061 o
-14 -1 -13 22.749 16.018 14.215 112.493 o
-14 -1 -12 21.748 15.721 13.222 127.342 o
-14 -1 -11 84.089 97.655 27.881 25.145 o
-14 -1 -10 393.354 386.150 45.710 4.527 o
-14 -1 -9 281.783 236.487 29.094 9.578 o
-14 -1 -8 22.169 49.476 21.484 52.055 o
-14 -1 -7 27.352 53.354 21.039 52.267 o
-14 -1 -6 18.111 20.504 18.721 71.734 o
-14 -1 -5 51.641 47.049 14.197 79.269 o
-14 -1 -4 42.387 27.792 11.634 117.244 o
-14 -1 -3 62.500 44.323 33.497 21.769 o
-14 -1 -2 162.060 120.637 17.675 25.813 o
-14 -1 -1 63.250 75.265 15.063 61.343 o
-14 0 -16 46.603 65.612 25.050 35.699 o
-14 0 -15 93.212 140.049 31.067 19.634 o
-14 0 -14 60.058 60.218 24.738 34.951 o
-14 0 -13 44.168 -9.271 17.294 75.275 o
-14 0 -12 60.782 36.996 20.370 48.710 o
-14 0 -11 43.063 32.226 20.325 53.929 o
-14 0 -7 160.441 81.747 23.891 22.877 o
-14 0 -6 307.134 262.759 39.314 7.041 o
-14 0 -5 524.977 414.486 54.201 3.081 o
-14 0 -4 191.411 202.318 33.296 12.103 o
-14 0 -3 26.969 41.899 19.077 63.047 o
-14 0 -2 7.845 60.798 19.880 61.689 o
-14 0 -1 81.376 102.206 25.184 28.835 o
-13 -2 -15 42.433 32.172 13.984 92.246 o
-13 -2 -14 11.228 8.370 12.451 159.717 o
-13 -2 -13 70.449 80.509 15.410 55.982 o
-13 -2 -12 26.924 62.278 13.486 96.905 o
-13 -2 -11 53.873 99.152 14.330 63.093 o
-13 -2 -10 24.607 31.990 10.778 151.909 o
-13 -2 -9 63.749 64.140 14.784 64.838 o
-13 -2 -8 204.146 232.400 24.016 14.049 o
-13 -2 -7 16.913 31.023 13.047 126.809 o
-13 -2 -6 4.324 18.067 10.706 211.708 o
-13 -2 -5 38.754 40.003 18.832 60.785 o
-13 -2 -4 119.322 136.695 18.762 29.823 o
-13 -2 -3 36.489 39.844 12.477 108.049 o
-13 -2 -2 55.494 50.671 13.861 77.755 o
-13 -2 -1 107.622 102.266 16.790 38.153 o
-13 -1 -23 108.094 181.680 33.252 16.113 o
-13 -1 -22 6.738 13.194 17.072 91.450 o
-13 -1 -21 33.664 13.690 14.014 106.448 o
-13 -1 -20 102.826 164.841 25.599 22.852 o
-13 -1 -19 20.304 22.774 10.952 164.797 o
-13 -1 -18 5.718 1.368 10.004 260.797 o
-13 -1 -17 142.865 144.902 17.495 26.949 o
-13 -1 -16 6.729 -0.117 10.190 251.048 o
-13 -1 -15 3.397 -4.273 11.652 202.617 o
-13 -1 -14 82.139 160.132 21.171 30.672 o
-13 -1 -13 71.389 78.722 15.896 54.340 o
-13 -1 -12 7.490 6.683 11.946 179.569 o
-13 -1 -11 15.653 14.286 11.184 176.744 o
-13 -1 -10 0.126 3.106 11.968 195.568 o
-13 -1 -9 248.734 262.963 27.085 10.624 o
-13 -1 -8 231.669 196.078 33.118 10.868 o
-13 -1 -7 99.081 74.638 31.848 20.582 o
-13 -1 -6 0.501 -2.594 9.338 323.856 o
-13 -1 -5 95.026 105.728 15.972 42.385 o
-13 -1 -4 0.638 6.493 9.586 292.551 o
-13 -1 -3 4.847 12.156 9.304 277.671 o
-13 -1 -2 7.221 15.602 12.503 159.132 o
-13 -1 -1 95.376 84.789 12.274 54.237 o
-12 -2 -21 76.318 92.561 19.283 41.469 o
-12 -2 -20 81.611 59.443 14.878 57.554 o
-12 -2 -19 14.456 32.222 11.979 146.665 o
-12 -2 -18 43.101 27.500 11.062 123.107 o
-12 -2 -17 2.855 3.326 10.311 252.727 o
-12 -2 -16 78.341 26.498 11.762 82.459 o
-12 -2 -15 19.319 10.402 11.341 169.710 o
-12 -2 -14 9.074 17.564 10.764 198.823 o
-12 -2 -13 49.329 37.007 9.981 120.176 o
-12 -2 -12 44.077 30.930 9.303 140.826 o
-12 -2 -11 9.182 19.699 10.312 209.830 o
-12 -2 -10 5.473 6.686 8.838 313.475 o
-12 -2 -9 33.641 33.796 10.673 137.168 o
-12 -2 -8 104.018 96.122 14.260 44.620 o
-12 -2 -7 58.184 25.763 15.823 71.797 o
-12 -2 -6 11.188 6.393 10.360 220.937 o
-12 -2 -5 73.356 73.334 19.813 43.053 o
-12 -2 -4 185.463 203.262 22.426 16.673 o
-12 -2 -3 138.085 107.383 16.716 31.528 o
-12 -2 -2 7.092 15.350 10.910 201.657 o
-12 -2 -1 18.827 -4.260 10.943 191.411 o
-12 -1 -25 37.337 28.320 19.211 61.219 o
-12 -1 -24 38.940 38.407 13.566 96.126 o
-12 -1 -23 48.740 38.681 11.042 109.552 o
-12 -1 -22 26.344 41.732 15.125 90.458 o
-12 -1 -21 146.756 128.224 15.466 29.511 o
-12 -1 -20 77.259 78.677 12.849 62.245 o
-12 -1 -19 274.989 319.830 22.858 9.541 o
-12 -1 -18 340.408 323.656 25.046 7.482 o
-12 -1 -17 18.734 29.979 10.009 181.268 o
-12 -1 -16 176.977 163.313 18.109 21.243 o
-12 -1 -15 26.605 23.170 11.348 146.086 o
-12 -1 -14 113.162 118.762 15.569 36.947 o
-12 -1 -13 44.973 46.298 15.878 72.957 o
-12 -1 -12 163.770 153.204 17.720 23.504 o
-12 -1 -11 280.689 190.388 24.145 11.430 o
-12 -1 -10 50.185 63.846 11.863 89.382 o
-12 -1 -9 68.370 43.231 15.266 65.454 o
-12 -1 -8 201.490 203.126 29.530 12.990 o
-12 -1 -7 801.665 642.827 47.361 1.751 o
-12 -1 -6 655.525 546.454 41.465 2.471 o
-12 -1 -5 127.737 162.525 18.468 26.952 o
-12 -1 -4 126.585 102.246 15.457 35.948 o
-12 -1 -3 40.845 44.327 11.591 109.976 o
-12 -1 -2 87.599 90.330 12.423 55.999 o
-12 -1 -1 249.068 224.510 29.730 10.680 o
-12 0 -26 168.809 145.872 24.184 19.099 o
-12 0 -25 184.509 162.906 24.872 16.957 o
-12 0 -24 92.597 84.156 20.136 37.105 o
-12 0 -23 411.192 341.720 52.463 4.129 o
-12 0 -22 252.968 272.511 24.563 10.824 o
-12 0 -21 83.071 81.006 15.406 51.232 o
-12 0 -20 263.932 221.840 22.162 11.913 o
-12 0 -19 39.727 53.547 13.422 90.701 o
-12 0 -18 216.645 214.249 24.843 13.600 o
-12 0 -17 64.289 87.423 18.227 47.942 o
-12 0 -16 111.601 103.396 18.640 34.201 o
-12 0 -15 148.416 151.966 20.822 23.038 o
-12 0 -14 24.464 44.395 21.039 53.982 o
-12 0 -13 298.196 274.259 39.358 7.091 o
-12 0 -12 405.798 476.710 56.608 3.478 o
-12 0 -9 598.334 483.040 56.742 2.510 o
-12 0 -8 1223.260 980.165 92.222 0.713 o
-12 0 -7 448.672 424.248 47.827 3.793 o
-12 0 -6 188.568 162.246 29.418 14.595 o
-12 0 -5 169.942 108.803 23.490 21.031 o
-12 0 -4 134.146 111.611 24.471 23.468 o
-12 0 -3 205.048 261.065 33.341 10.619 o
-12 0 -2 58.219 61.823 20.370 46.351 o
-12 0 -1 532.205 429.682 33.369 3.721 o
-11 -3 -15 51.015 60.922 16.205 64.918 o
-11 -3 -14 38.317 20.022 10.917 137.097 o
-11 -3 -13 42.993 52.404 11.031 108.393 o
-11 -3 -12 2.219 2.884 9.335 308.598 o
-11 -3 -11 4.082 6.433 8.156 370.070 o
-11 -3 -10 0.133 -1.314 8.876 360.408 o
-11 -3 -9 9.293 9.041 8.737 293.740 o
-11 -3 -8 81.593 85.490 13.479 56.609 o
-11 -3 -7 7.269 3.626 10.065 248.810 o
-11 -3 -6 2.424 5.096 9.826 274.960 o
-11 -3 -5 33.187 42.294 10.807 129.701 o
-11 -3 -4 56.283 58.086 11.898 86.527 o
-11 -3 -3 10.089 -1.436 9.184 287.551 o
-11 -3 -2 3.952 9.617 9.357 284.182 o
-11 -3 -1 42.683 40.260 8.436 145.886 o
-11 -2 -25 17.629 7.458 12.830 143.758 o
-11 -2 -24 12.390 12.823 11.573 174.791 o
-11 -2 -23 15.647 26.340 12.089 147.241 o
-11 -2 -22 19.069 13.141 9.882 205.046 o
-11 -2 -21 424.491 539.032 34.533 4.125 o
-11 -2 -20 123.984 135.995 13.307 35.513 o
-11 -2 -19 18.190 25.294 8.904 218.321 o
-11 -2 -18 6.541 6.978 7.564 396.574 o
-11 -2 -17 2.484 6.877 7.531 437.448 o
-11 -2 -16 13.539 20.985 7.521 300.367 o
-11 -2 -15 122.472 143.496 11.981 36.513 o
-11 -2 -14 92.564 109.850 10.558 54.094 o
-11 -2 -13 88.525 116.108 16.745 41.176 o
-11 -2 -12 59.649 70.438 11.730 80.197 o
-11 -2 -11 372.494 422.430 29.665 5.644 o
-11 -2 -10 4.937 9.027 8.760 314.839 o
-11 -2 -9 197.274 224.688 19.758 16.189 o
-11 -2 -8 19.696 12.487 10.239 194.206 o
-11 -2 -7 241.017 302.245 40.166 7.764 o
-11 -2 -6 101.189 128.582 15.729 38.350 o
-11 -2 -5 126.734 131.245 20.348 27.358 o
-11 -2 -4 58.581 58.124 13.756 74.174 o
-11 -2 -3 373.098 467.087 35.243 4.988 o
-11 -2 -2 13.340 8.235 9.988 225.232 o
-11 -2 -1 359.130 386.897 49.298 4.590 o
-11 -1 -29 11.832 -10.252 22.376 54.938 o
-11 -1 -28 131.487 164.993 19.533 25.319 o
-11 -1 -27 2.330 -1.175 10.860 234.930 o
-11 -1 -26 134.613 140.089 15.167 30.892 o
-11 -1 -25 74.906 52.864 11.072 78.796 o
-11 -1 -24 4.261 9.275 7.875 380.417 o
-11 -1 -23 0.023 10.013 7.979 402.540 o
-11 -1 -22 128.210 149.436 16.712 29.608 o
-11 -1 -21 3.598 8.263 8.025 377.283 o
-11 -1 -20 1.915 26.236 13.009 148.406 o
-11 -1 -19 68.216 52.428 12.278 77.629 o
-11 -1 -18 103.858 123.263 18.072 34.650 o
-11 -1 -17 50.704 41.417 9.908 116.101 o
-11 -1 -16 228.994 234.859 18.287 14.296 o
-11 -1 -15 12.590 4.834 8.021 327.761 o
-11 -1 -14 6.559 15.035 7.949 338.170 o
-11 -1 -13 3.819 -5.088 5.738 744.562 o
-11 -1 -12 26.097 27.308 7.216 234.399 o
-11 -1 -11 249.724 317.946 23.936 10.241 o
-11 -1 -10 364.368 362.987 20.506 6.927 o
-11 -1 -9 108.424 123.787 12.174 42.761 o
-11 -1 -8 290.666 292.951 21.767 9.626 o
-11 -1 -7 41.086 62.719 11.332 102.286 o
-11 -1 -6 768.700 793.064 43.141 1.686 o
-11 -1 -5 13.266 11.195 8.803 267.237 o
-11 -1 -4 17.487 38.123 17.361 78.184 o
-11 -1 -3 151.708 125.422 15.919 28.507 o
-11 -1 -2 175.120 193.626 18.774 19.599 o
-11 -1 -1 135.849 161.224 11.469 32.051 o
-10 -3 -20 22.007 13.474 19.100 69.111 o
-10 -3 -19 8.800 -4.652 14.740 123.778 o
-10 -3 -18 32.925 21.763 11.742 131.722 o
-10 -3 -17 0.089 11.368 10.397 244.884 o
-10 -3 -16 3.101 3.559 9.740 279.843 o
-10 -3 -15 4.126 2.445 7.151 485.246 o
-10 -3 -14 0.306 -1.096 7.342 523.965 o
-10 -3 -13 11.266 10.014 7.232 370.059 o
-10 -3 -12 64.268 50.582 8.794 102.469 o
-10 -3 -11 4.405 11.612 7.918 367.162 o
-10 -3 -10 2.081 -1.529 7.610 468.380 o
-10 -3 -9 16.185 23.094 9.049 224.154 o
-10 -3 -8 30.054 47.125 10.240 138.325 o
-10 -3 -7 25.258 9.096 8.974 219.615 o
-10 -3 -6 33.977 35.843 10.320 139.995 o
-10 -3 -5 47.129 65.442 12.446 87.325 o
-10 -3 -4 32.375 14.127 7.612 224.769 o
-10 -3 -3 8.010 -3.231 7.301 439.459 o
-10 -3 -2 19.820 13.431 7.440 289.907 o
-10 -3 -1 7.588 2.745 7.314 428.658 o
-10 -2 -28 20.653 23.194 23.000 48.829 o
-10 -2 -27 18.459 23.533 10.267 183.268 o
-10 -2 -26 1.062 17.246 10.346 235.098 o
-10 -2 -25 14.969 16.721 10.208 201.686 o
-10 -2 -24 38.343 41.686 11.367 116.705 o
-10 -2 -23 102.939 103.804 14.018 44.255 o
-10 -2 -22 198.777 142.400 16.116 21.141 o
-10 -2 -21 147.886 118.506 12.570 32.989 o
-10 -2 -20 117.737 94.923 10.467 47.198 o
-10 -2 -19 23.053 23.634 8.229 224.342 o
-10 -2 -18 72.753 43.237 8.619 98.146 o
-10 -2 -17 43.703 46.655 8.308 139.467 o
-10 -2 -16 3.513 5.377 7.259 463.123 o
-10 -2 -15 32.087 30.954 8.422 180.597 o
-10 -2 -14 27.452 29.996 7.361 219.990 o
-10 -2 -13 297.120 254.427 16.898 10.773 o
-10 -2 -12 147.572 128.043 12.960 31.722 o
-10 -2 -11 15.862 14.023 7.671 299.827 o
-10 -2 -10 9.737 8.298 7.296 385.140 o
-10 -2 -9 11.327 14.291 8.458 284.968 o
-10 -2 -8 54.526 44.897 10.197 106.736 o
-10 -2 -7 439.476 338.993 63.449 3.340 o
-10 -2 -6 223.765 208.365 18.831 15.279 o
-10 -2 -5 4.669 14.005 9.653 258.019 o
-10 -2 -4 175.461 153.566 16.277 23.030 o
-10 -2 -3 32.779 12.496 17.874 73.488 o
-10 -2 -2 19.865 18.132 7.045 293.387 o
-10 -2 -1 91.918 81.842 14.636 50.069 o
-10 -1 -31 53.268 38.392 13.271 87.300 o
-10 -1 -30 13.798 6.717 11.835 171.297 o
-10 -1 -29 16.365 28.657 12.477 137.834 o
-10 -1 -28 17.902 21.045 11.143 166.851 o
-10 -1 -27 149.710 126.293 15.473 29.171 o
-10 -1 -26 238.133 202.564 16.357 15.245 o
-10 -1 -25 32.663 25.723 8.271 189.189 o
-10 -1 -24 1.057 -3.013 7.101 548.798 o
-10 -1 -23 88.011 90.003 12.717 55.089 o
-10 -1 -22 1162.280 1128.740 62.820 0.795 o
-10 -1 -21 694.912 717.803 32.595 2.111 o
-10 -1 -20 45.878 73.790 10.396 98.911 o
-10 -1 -19 155.214 135.136 11.536 30.750 o
-10 -1 -18 85.075 109.115 10.592 57.624 o
-10 -1 -17 87.585 96.122 9.801 61.666 o
-10 -1 -16 219.675 172.477 13.519 18.690 o
-10 -1 -15 26.678 33.322 7.339 217.239 o
-10 -1 -14 728.011 675.495 27.380 2.118 o
-10 -1 -13 205.049 194.364 11.892 19.570 o
-10 -1 -12 158.948 138.664 10.781 30.255 o
-10 -1 -11 103.825 134.426 10.457 45.167 o
-10 -1 -10 118.636 98.848 10.542 46.062 o
-10 -1 -9 397.017 341.052 18.600 6.615 o
-10 -1 -8 35.272 93.227 21.218 45.375 o
-10 -1 -7 700.299 707.032 96.007 1.315 o
-10 -1 -6 999.226 1073.020 55.074 1.000 o
-10 -1 -5 366.110 414.781 39.696 5.075 o
-10 -1 -4 97.347 127.765 30.516 20.236 o
-10 -1 -3 524.908 506.032 37.971 3.354 o
-10 -1 -2 769.614 755.979 48.203 1.682 o
-10 -1 -1 235.827 268.215 22.903 11.961 o
-10 0 -33 362.402 379.612 37.509 5.502 o
-10 0 -32 143.386 132.605 31.112 16.874 o
-10 0 -31 163.136 126.610 21.761 22.110 o
-10 0 -30 138.911 136.018 22.613 23.427 o
-10 0 -29 317.855 359.444 35.086 6.535 o
-10 0 -28 248.356 291.526 42.233 7.384 o
-10 0 -27 308.564 236.405 22.406 9.875 o
-10 0 -26 244.602 238.162 22.596 12.312 o
-10 0 -25 635.591 498.944 34.617 2.804 o
-10 0 -24 583.510 585.411 37.413 2.794 o
-10 0 -23 117.917 153.097 22.759 24.638 o
-10 0 -22 166.706 199.923 26.373 16.171 o
-10 0 -21 254.599 279.392 23.254 10.892 o
-10 0 -20 379.014 419.763 37.744 5.033 o
-10 0 -19 428.794 349.326 26.351 5.563 o
-10 0 -18 1569.680 1740.140 80.966 0.414 o
-10 0 -17 944.488 887.542 50.733 1.209 o
-10 0 -16 295.933 380.804 27.413 7.588 o
-10 0 -15 318.695 275.007 21.639 9.048 o
-10 0 -14 26.791 78.030 14.337 84.372 o
-10 0 -13 410.854 423.193 28.560 5.181 o
-10 0 -12 288.206 231.374 25.637 10.098 o
-10 0 -11 47.013 23.847 16.492 73.731 o
-10 0 -10 236.020 179.363 29.953 11.920 o
-10 0 -9 1922.560 1865.030 164.832 0.255 o
-10 0 -8 3839.040 3183.860 270.114 0.076 o
-10 0 -6 316.630 432.696 82.260 2.763 o
-10 0 -5 1324.660 1064.180 65.126 0.696 o
-10 0 -4 140.746 182.028 27.569 17.732 o
-10 0 -3 579.522 457.598 35.681 3.221 o
-10 0 -2 250.874 258.875 35.743 8.829 o
-10 0 -1 32.287 58.578 9.257 137.876 o
-9 -3 -24 28.014 18.899 18.364 70.841 o
-9 -3 -23 21.387 35.461 15.758 89.980 o
-9 -3 -22 160.528 227.812 33.913 12.556 o
-9 -3 -21 13.495 2.850 10.320 220.847 o
-9 -3 -20 14.010 2.804 9.939 233.358 o
-9 -3 -19 65.908 84.656 23.872 34.202 o
-9 -3 -18 35.698 39.932 12.978 103.751 o
-9 -3 -17 117.013 113.800 23.679 25.987 o
-9 -3 -16 28.562 41.454 12.153 119.411 o
-9 -3 -15 82.579 89.658 13.450 55.395 o
-9 -3 -14 37.687 43.230 7.286 169.381 o
-9 -3 -13 0.512 6.937 7.140 503.633 o
-9 -3 -12 62.199 86.940 9.941 80.821 o
-9 -3 -11 44.152 28.643 8.192 158.146 o
-9 -3 -10 16.976 19.295 8.864 234.138 o
-9 -3 -9 49.662 93.255 11.978 77.894 o
-9 -3 -8 40.816 41.009 8.756 144.653 o
-9 -3 -7 564.929 609.334 29.243 2.990 o
-9 -3 -6 103.206 150.082 14.094 37.742 o
-9 -3 -5 690.318 748.046 36.081 2.039 o
-9 -3 -4 206.753 196.897 15.586 18.040 o
-9 -3 -3 123.820 192.618 15.173 28.250 o
-9 -3 -2 92.478 82.102 10.621 60.585 o
-9 -3 -1 3.170 17.165 8.312 329.643 o
-9 -2 -31 50.498 27.814 16.537 70.877 o
-9 -2 -30 2.472 5.556 8.005 398.344 o
-9 -2 -29 41.055 37.301 9.640 136.246 o
-9 -2 -28 18.469 11.342 8.627 252.308 o
-9 -2 -27 43.302 31.605 9.089 144.432 o
-9 -2 -26 185.671 178.415 15.130 21.105 o
-9 -2 -25 7.008 1.716 7.853 390.338 o
-9 -2 -24 211.281 217.701 14.793 17.081 o
-9 -2 -23 25.514 29.008 7.849 216.382 o
-9 -2 -22 875.464 1005.000 39.094 1.282 o
-9 -2 -21 96.656 109.204 13.349 46.725 o
-9 -2 -20 403.741 471.099 22.634 5.248 o
-9 -2 -19 170.377 204.764 15.645 21.082 o
-9 -2 -18 7.115 16.866 7.914 330.806 o
-9 -2 -17 33.502 21.607 7.753 204.151 o
-9 -2 -16 171.833 206.976 14.976 21.131 o
-9 -2 -15 199.056 207.107 13.822 18.889 o
-9 -2 -14 198.915 252.509 14.773 16.696 o
-9 -2 -13 149.837 164.158 12.040 28.722 o
-9 -2 -12 140.792 150.548 11.526 32.085 o
-9 -2 -11 535.209 611.260 25.290 3.243 o
-9 -2 -10 1050.750 1220.390 43.554 0.905 o
-9 -2 -9 191.746 221.788 14.948 18.489 o
-9 -2 -8 57.774 63.874 11.922 82.971 o
-9 -2 -7 108.120 111.838 15.151 39.658 o
-9 -2 -6 21.299 15.821 6.120 333.426 o
-9 -2 -5 28.614 20.919 6.698 252.374 o
-9 -2 -4 242.635 239.116 15.718 13.982 o
-9 -2 -3 282.345 343.194 19.354 9.398 o
-9 -2 -2 34.707 19.610 7.561 207.864 o
-9 -2 -1 67.445 80.037 8.784 84.527 o
-9 -1 -34 93.172 87.586 28.616 23.923 o
-9 -1 -33 25.402 29.475 12.350 127.791 o
-9 -1 -32 52.978 71.490 15.066 66.997 o
-9 -1 -31 64.478 61.012 18.068 52.305 o
-9 -1 -30 33.427 34.766 11.502 125.654 o
-9 -1 -29 9.415 1.872 13.553 143.217 o
-9 -1 -28 154.909 152.509 15.627 26.215 o
-9 -1 -27 74.277 62.983 11.249 74.853 o
-9 -1 -26 397.672 436.923 24.000 5.507 o
-9 -1 -25 2.498 -8.382 8.196 403.052 o
-9 -1 -24 31.150 42.739 12.276 114.313 o
-9 -1 -23 17.245 25.876 7.927 252.693 o
-9 -1 -22 2.889 -3.574 6.776 570.314 o
-9 -1 -21 77.698 65.759 10.219 75.914 o
-9 -1 -20 234.338 222.155 14.177 15.391 o
-9 -1 -19 666.175 768.757 44.280 1.989 o
-9 -1 -18 242.145 247.396 14.528 14.015 o
-9 -1 -17 96.691 122.475 11.927 47.229 o
-9 -1 -16 184.851 202.049 13.822 20.526 o
-9 -1 -15 58.255 82.190 7.845 96.967 o
-9 -1 -14 56.503 62.055 6.479 120.548 o
-9 -1 -13 0.834 0.024 4.864 1147.180 o
-9 -1 -12 86.703 98.662 10.535 59.539 o
-9 -1 -11 204.844 229.972 13.200 17.576 o
-9 -1 -10 321.951 343.240 16.436 8.497 o
-9 -1 -9 315.762 317.675 15.770 9.121 o
-9 -1 -8 911.447 1005.440 44.594 1.201 o
-9 -1 -7 1485.090 1557.120 66.487 0.489 o
-9 -1 -6 300.208 323.498 20.928 8.963 o
-9 -1 -5 276.312 359.045 22.693 8.926 o
-9 -1 -4 219.882 289.850 16.445 13.675 o
-9 -1 -3 742.118 796.057 29.234 1.864 o
-9 -1 -2 59.320 99.465 11.047 73.517 o
-9 -1 -1 24.639 33.255 4.601 303.474 o
-8 -4 -10 0.533 27.814 24.738 44.922 o
-8 -4 -9 23.161 76.993 25.071 37.973 o
-8 -4 -8 35.779 32.230 11.233 127.655 o
-8 -4 -7 12.763 11.052 8.278 294.803 o
-8 -4 -6 3.102 9.793 8.491 340.705 o
-8 -4 -5 1.686 -2.638 8.363 393.919 o
-8 -4 -4 3.204 9.279 7.377 433.698 o
-8 -4 -3 40.020 41.100 11.821 110.354 o
-8 -4 -2 10.729 15.254 7.647 328.616 o
-8 -4 -1 2.853 4.935 7.808 415.846 o
-8 -3 -27 2.756 -14.442 19.166 76.681 o
-8 -3 -26 36.619 36.254 15.799 80.567 o
-8 -3 -25 105.400 53.935 13.905 52.155 o
-8 -3 -24 74.805 84.112 13.502 59.864 o
-8 -3 -23 5.778 11.086 9.860 250.118 o
-8 -3 -22 13.127 10.542 9.743 231.127 o
-8 -3 -21 1.842 -6.988 10.234 265.364 o
-8 -3 -20 18.270 11.474 9.959 207.242 o
-8 -3 -19 2.793 0.564 9.875 279.684 o
-8 -3 -18 4.629 -14.068 11.709 198.226 o
-8 -3 -17 22.777 -5.165 9.941 211.246 o
-8 -3 -16 22.965 27.072 8.817 202.929 o
-8 -3 -15 13.330 12.247 7.257 344.202 o
-8 -3 -14 154.968 136.115 11.418 30.794 o
-8 -3 -13 134.928 142.186 11.262 34.477 o
-8 -3 -12 15.689 3.797 7.637 334.264 o
-8 -3 -11 39.205 27.795 8.503 165.499 o
-8 -3 -10 20.501 2.763 8.140 283.028 o
-8 -3 -9 62.039 36.669 8.091 119.573 o
-8 -3 -8 13.005 33.851 10.383 181.144 o
-8 -3 -7 42.157 52.702 9.471 124.431 o
-8 -3 -6 148.247 148.799 13.012 29.616 o
-8 -3 -5 13.414 6.067 7.883 326.997 o
-8 -3 -4 9.781 21.363 7.014 351.440 o
-8 -3 -3 6.328 13.889 6.816 430.322 o
-8 -3 -2 198.868 192.981 13.700 19.620 o
-8 -3 -1 24.793 27.708 7.616 227.691 o
-8 -2 -33 9.392 5.661 14.263 128.526 o
-8 -2 -32 99.644 109.257 11.788 48.813 o
-8 -2 -31 190.960 183.274 14.541 20.563 o
-8 -2 -30 6.677 3.352 7.317 434.463 o
-8 -2 -29 48.829 39.651 10.762 111.504 o
-8 -2 -28 88.466 77.781 9.995 65.793 o
-8 -2 -27 59.986 67.831 8.862 97.229 o
-8 -2 -26 10.691 5.753 6.608 445.962 o
-8 -2 -25 68.701 58.579 8.055 97.348 o
-8 -2 -24 32.700 24.835 6.457 231.770 o
-8 -2 -23 34.020 17.545 6.176 249.457 o
-8 -2 -22 35.571 29.000 7.462 192.113 o
-8 -2 -21 2.719 8.740 5.824 646.904 o
-8 -2 -20 69.737 42.578 7.205 110.766 o
-8 -2 -19 67.170 59.320 8.160 98.059 o
-8 -2 -18 8.753 4.317 6.232 519.721 o
-8 -2 -17 27.142 26.917 5.910 268.229 o
-8 -2 -16 193.944 163.702 17.183 20.027 o
-8 -2 -15 186.317 169.969 12.050 22.941 o
-8 -2 -14 35.748 36.073 7.857 174.568 o
-8 -2 -13 92.050 78.657 9.611 64.568 o
-8 -2 -12 66.410 60.145 10.032 88.069 o
-8 -2 -11 266.616 210.910 14.136 13.727 o
-8 -2 -10 17.476 10.330 5.490 432.472 o
-8 -2 -9 5.431 8.050 5.253 689.821 o
-8 -2 -8 387.781 334.471 19.010 6.839 o
-8 -2 -7 71.354 82.706 9.395 77.692 o
-8 -2 -6 678.903 684.478 29.445 2.264 o
-8 -2 -5 602.324 612.367 25.662 2.829 o
-8 -2 -4 279.759 270.778 15.018 11.415 o
-8 -2 -3 14.950 16.140 6.597 356.361 o
-8 -2 -2 73.244 83.071 8.322 80.221 o
-8 -2 -1 121.303 115.576 10.247 42.826 o
-8 -1 -36 118.982 140.406 33.430 16.474 o
-8 -1 -35 344.204 307.708 33.377 6.707 o
-8 -1 -34 171.819 143.184 23.189 19.584 o
-8 -1 -33 45.438 82.511 18.796 52.237 o
-8 -1 -32 55.586 62.788 16.836 59.808 o
-8 -1 -31 89.302 90.335 18.776 39.901 o
-8 -1 -30 277.453 294.464 24.883 9.554 o
-8 -1 -29 589.056 583.048 32.185 2.874 o
-8 -1 -28 414.807 385.830 25.478 5.551 o
-8 -1 -27 516.010 537.316 32.604 3.462 o
-8 -1 -26 391.577 361.201 20.826 6.397 o
-8 -1 -25 180.130 178.628 14.194 22.158 o
-8 -1 -24 209.923 245.150 16.243 15.743 o
-8 -1 -23 166.159 121.459 11.617 29.919 o
-8 -1 -22 151.349 154.495 14.807 27.221 o
-8 -1 -21 314.850 266.351 16.682 9.912 o
-8 -1 -20 311.395 278.848 17.356 9.737 o
-8 -1 -19 1230.030 1310.360 49.305 0.708 o
-8 -1 -18 251.889 265.488 14.709 12.931 o
-8 -1 -17 48.619 35.101 6.313 164.889 o
-8 -1 -16 1355.120 1393.750 44.677 0.612 o
-8 -1 -15 1037.710 1134.190 37.123 0.980 o
-8 -1 -14 468.345 415.943 16.089 4.991 o
-8 -1 -13 36.295 36.958 5.705 208.883 o
-8 -1 -12 409.465 422.351 15.550 5.814 o
-8 -1 -11 45.232 63.162 7.392 131.249 o
-8 -1 -10 915.484 928.823 33.798 1.302 o
-8 -1 -9 2043.690 2112.560 66.424 0.274 o
-8 -1 -8 177.423 243.079 14.204 19.091 o
-8 -1 -7 1120.270 1207.280 55.522 0.817 o
-8 -1 -6 356.331 314.762 17.560 7.871 o
-8 -1 -5 306.818 298.092 22.623 8.934 o
-8 -1 -4 1027.680 1149.390 37.620 0.981 o
-8 -1 -3 83.051 101.081 13.812 51.936 o
-8 -1 -2 25.142 52.007 7.293 192.067 o
-8 -1 -1 346.365 360.866 14.973 7.725 o
-8 0 -37 0.576 45.384 15.748 99.934 o
-8 0 -36 85.776 70.496 17.841 45.404 o
-8 0 -35 137.072 185.736 40.629 11.453 o
-8 0 -34 241.686 275.918 30.646 9.884 o
-8 0 -33 739.721 742.625 56.501 1.682 o
-8 0 -32 124.301 143.263 21.599 25.609 o
-8 0 -31 148.452 150.249 30.510 16.471 o
-8 0 -30 10.129 -0.506 10.268 236.904 o
-8 0 -29 300.007 319.803 25.181 8.496 o
-8 0 -28 181.636 183.711 18.615 19.538 o
-8 0 -27 24.826 22.029 10.252 171.210 o
-8 0 -26 11.959 12.229 9.895 226.654 o
-8 0 -25 176.669 150.003 18.487 21.742 o
-8 0 -24 402.183 360.579 32.153 5.494 o
-8 0 -23 71.032 68.759 11.924 72.124 o
-8 0 -22 79.515 143.392 15.540 42.340 o
-8 0 -21 1392.940 1300.610 65.670 0.588 o
-8 0 -20 4741.210 5137.630 216.624 0.049 o
-8 0 -19 1022.080 1056.560 52.607 0.993 o
-8 0 -18 718.207 763.560 58.240 1.688 o
-8 0 -17 1108.820 1106.990 56.023 0.869 o
-8 0 -16 21.587 105.194 22.178 44.016 o
-8 0 -15 652.258 552.254 32.709 2.621 o
-8 0 -14 320.544 421.379 52.387 4.549 o
-8 0 -13 805.046 785.344 36.858 1.656 o
-8 0 -12 1442.070 1562.000 70.994 0.499 o
-8 0 -11 212.325 180.567 11.792 19.565 o
-8 0 -10 2806.830 3097.410 125.699 0.136 o
-8 0 -9 1406.170 1493.590 63.708 0.538 o
-8 0 -8 1761.280 1742.690 73.845 0.367 o
-8 0 -7 768.106 666.924 39.940 1.885 o
-8 0 -6 294.479 351.218 21.262 8.689 o
-8 0 -5 360.243 317.060 26.572 6.989 o
-8 0 -4 1151.890 1126.250 54.055 0.828 o
-8 0 -3 1459.800 1550.620 59.937 0.507 o
-8 0 -2 229.213 293.413 51.813 6.198 o
-8 0 -1 3437.450 3435.530 148.889 0.097 o
-7 -4 -15 14.718 25.818 12.877 135.075 o
-7 -4 -14 23.508 19.610 9.088 205.359 o
-7 -4 -13 116.321 144.600 12.143 37.717 o
-7 -4 -12 40.450 23.262 8.009 176.379 o
-7 -4 -11 3.345 -0.490 7.287 493.028 o
-7 -4 -10 1.178 4.485 7.847 429.198 o
-7 -4 -9 83.372 90.895 11.421 60.711 o
-7 -4 -8 10.404 13.332 7.948 319.349 o
-7 -4 -7 9.005 10.757 7.202 388.031 o
-7 -4 -6 45.315 27.852 7.840 161.483 o
-7 -4 -5 59.495 71.801 11.243 82.401 o
-7 -4 -4 141.837 131.682 13.348 32.129 o
-7 -4 -3 445.075 417.606 22.711 5.052 o
-7 -4 -2 146.909 124.781 13.990 31.197 o
-7 -4 -1 11.216 34.108 10.128 191.419 o
-7 -3 -29 17.689 54.468 23.223 45.907 o
-7 -3 -28 54.039 87.257 22.290 39.352 o
-7 -3 -27 21.819 21.699 8.982 210.242 o
-7 -3 -26 182.417 228.689 17.125 18.171 o
-7 -3 -25 100.176 79.057 11.547 55.225 o
-7 -3 -24 180.693 173.886 17.941 20.434 o
-7 -3 -23 136.094 119.394 14.918 32.839 o
-7 -3 -22 43.773 64.776 17.052 63.089 o
-7 -3 -21 32.988 44.038 10.922 127.308 o
-7 -3 -20 137.395 190.918 17.173 24.825 o
-7 -3 -19 28.598 29.518 11.601 134.387 o
-7 -3 -18 680.921 706.702 34.193 2.163 o
-7 -3 -17 28.145 33.833 12.540 119.460 o
-7 -3 -16 149.026 188.707 13.391 25.999 o
-7 -3 -15 3.075 2.465 6.214 637.893 o
-7 -3 -14 58.686 43.382 7.438 124.895 o
-7 -3 -13 268.297 317.128 16.828 10.682 o
-7 -3 -12 269.583 302.592 18.162 10.729 o
-7 -3 -11 188.169 141.395 15.711 22.585 o
-7 -3 -10 331.258 364.954 18.842 7.770 o
-7 -3 -9 19.314 14.582 7.580 283.462 o
-7 -3 -8 3.255 -2.767 7.149 511.740 o
-7 -3 -7 220.007 265.463 18.387 13.905 o
-7 -3 -6 471.191 473.901 30.457 4.155 o
-7 -3 -5 138.046 153.658 12.768 31.257 o
-7 -3 -4 9.014 16.773 7.215 362.304 o
-7 -3 -3 16.816 13.512 7.275 315.250 o
-7 -3 -2 26.559 33.587 13.227 112.874 o
-7 -3 -1 173.192 210.794 16.231 20.208 o
-7 -2 -34 26.838 28.749 16.358 83.687 o
-7 -2 -33 123.512 139.914 14.145 34.203 o
-7 -2 -32 28.024 35.284 9.002 174.202 o
-7 -2 -31 21.270 36.204 7.832 219.125 o
-7 -2 -30 9.291 14.798 7.189 369.649 o
-7 -2 -29 109.929 108.396 10.706 47.190 o
-7 -2 -28 548.383 586.738 27.032 3.203 o
-7 -2 -27 360.274 373.863 19.801 6.947 o
-7 -2 -26 113.355 131.598 13.375 38.525 o
-7 -2 -25 239.818 243.321 15.013 14.175 o
-7 -2 -24 29.823 27.652 7.498 212.305 o
-7 -2 -23 99.546 109.524 8.791 54.571 o
-7 -2 -22 78.189 80.821 7.879 78.710 o
-7 -2 -21 69.738 51.239 6.341 109.850 o
-7 -2 -20 227.624 228.294 11.620 16.231 o
-7 -2 -19 420.552 426.813 17.182 5.546 o
-7 -2 -18 326.188 278.375 13.546 9.625 o
-7 -2 -17 113.236 111.573 8.761 48.402 o
-7 -2 -16 299.324 298.963 13.191 10.256 o
-7 -2 -15 509.062 544.392 19.504 3.805 o
-7 -2 -14 267.191 298.205 13.960 11.507 o
-7 -2 -13 30.618 30.107 5.651 249.021 o
-7 -2 -12 504.616 529.424 22.369 3.846 o
-7 -2 -11 1490.210 1784.260 72.609 0.440 o
-7 -2 -10 270.375 383.394 29.037 7.946 o
-7 -2 -9 2694.420 3036.470 103.858 0.148 o
-7 -2 -8 1272.950 1504.730 53.533 0.616 o
-7 -2 -7 28.262 103.494 15.630 68.449 o
-7 -2 -6 173.904 128.349 11.917 27.768 o
-7 -2 -5 87.571 150.585 16.218 38.165 o
-7 -2 -4 194.501 178.253 28.953 14.103 o
-7 -2 -3 1472.330 1724.920 55.313 0.473 o
-7 -2 -2 94.727 151.435 13.196 41.123 o
-7 -2 -1 1143.310 1404.200 50.576 0.734 o
-7 -1 -37 52.792 61.114 11.309 92.018 o
-7 -1 -36 40.374 27.135 12.697 108.256 o
-7 -1 -35 69.785 64.031 11.377 77.006 o
-7 -1 -34 69.506 95.191 12.759 62.308 o
-7 -1 -33 92.378 125.741 12.017 48.008 o
-7 -1 -32 66.859 69.536 9.060 88.480 o
-7 -1 -31 11.150 19.437 7.006 348.840 o
-7 -1 -30 275.168 310.639 16.509 10.583 o
-7 -1 -29 55.368 53.637 7.540 121.225 o
-7 -1 -28 235.391 241.104 13.069 14.930 o
-7 -1 -27 4.775 1.829 5.255 798.876 o
-7 -1 -26 64.340 78.286 7.473 94.335 o
-7 -1 -25 22.862 19.465 6.339 300.419 o
-7 -1 -24 371.332 392.372 18.249 6.635 o
-7 -1 -23 461.101 439.932 19.471 4.830 o
-7 -1 -22 79.022 80.941 6.732 81.750 o
-7 -1 -21 338.791 327.466 13.834 8.443 o
-7 -1 -20 165.700 201.834 10.007 24.445 o
-7 -1 -19 518.153 506.321 17.807 3.925 o
-7 -1 -18 3317.640 3797.030 101.473 0.099 o
-7 -1 -17 548.954 564.647 19.206 3.415 o
-7 -1 -16 186.830 216.860 10.063 20.874 o
-7 -1 -15 50.063 39.019 4.894 171.582 o
-7 -1 -14 88.272 90.009 7.025 70.222 o
-7 -1 -13 516.336 604.853 18.180 3.524 o
-7 -1 -12 128.111 135.182 9.245 39.034 o
-7 -1 -11 138.305 86.475 7.193 45.656 o
-7 -1 -10 1073.610 1210.480 35.714 0.905 o
-7 -1 -9 330.097 322.291 16.378 8.568 o
-7 -1 -8 130.532 109.962 7.075 44.367 o
-7 -1 -7 154.602 162.793 9.817 29.440 o
-7 -1 -6 214.137 211.815 11.023 18.148 o
-7 -1 -5 26.675 38.527 4.409 277.947 o
-7 -1 -4 148.662 203.670 9.946 26.882 o
-7 -1 -3 174.419 236.168 9.403 21.385 o
-7 -1 -2 386.819 375.087 12.328 6.785 o
-7 -1 -1 697.058 822.830 21.555 2.014 o
-6 -4 -19 6.370 11.411 20.281 66.331 o
-6 -4 -18 18.721 0.067 13.237 139.482 o
-6 -4 -17 10.182 -1.065 11.829 183.972 o
-6 -4 -16 19.557 16.612 9.059 223.399 o
-6 -4 -15 16.939 11.881 6.860 342.292 o
-6 -4 -14 5.964 4.974 6.286 551.214 o
-6 -4 -13 32.427 43.087 9.353 150.402 o
-6 -4 -12 15.569 14.707 7.386 313.719 o
-6 -4 -11 46.280 59.297 8.934 118.846 o
-6 -4 -10 41.505 36.860 8.246 154.229 o
-6 -4 -9 22.830 17.110 7.427 265.213 o
-6 -4 -8 7.636 5.577 7.165 428.022 o
-6 -4 -7 34.283 18.441 8.142 197.916 o
-6 -4 -6 0.475 3.323 8.089 416.276 o
-6 -4 -5 9.310 4.603 8.221 336.415 o
-6 -4 -4 27.426 9.021 7.041 276.807 o
-6 -4 -3 54.804 42.268 9.529 113.621 o
-6 -4 -2 0.957 11.663 16.211 104.469 o
-6 -4 -1 19.318 13.337 10.842 178.622 o
-6 -3 -30 1.874 25.050 20.013 67.435 o
-6 -3 -29 13.178 0.432 8.267 322.600 o
-6 -3 -28 21.387 20.940 8.854 216.467 o
-6 -3 -27 42.050 32.549 9.479 140.662 o
-6 -3 -26 233.807 223.787 16.815 14.722 o
-6 -3 -25 25.901 24.793 8.571 203.684 o
-6 -3 -24 59.767 65.963 10.639 87.930 o
-6 -3 -23 20.362 14.252 8.260 252.204 o
-6 -3 -22 67.846 50.343 10.787 86.847 o
-6 -3 -21 7.833 4.116 7.838 375.651 o
-6 -3 -20 62.331 47.978 8.622 107.506 o
-6 -3 -19 29.019 19.956 8.373 206.449 o
-6 -3 -18 31.746 5.502 7.523 247.509 o
-6 -3 -17 55.052 41.886 9.452 114.212 o
-6 -3 -16 146.744 125.613 10.098 34.712 o
-6 -3 -15 341.129 301.728 15.174 8.645 o
-6 -3 -14 35.715 18.901 6.434 232.107 o
-6 -3 -13 9.691 6.317 6.168 499.018 o
-6 -3 -12 97.992 89.563 8.820 60.230 o
-6 -3 -11 251.108 249.653 15.849 13.185 o
-6 -3 -10 280.561 278.866 14.469 11.278 o
-6 -3 -9 2.916 3.044 5.952 683.891 o
-6 -3 -8 39.775 53.812 7.312 151.723 o
-6 -3 -7 29.944 41.030 7.387 192.360 o
-6 -3 -6 25.468 54.505 8.816 161.276 o
-6 -3 -5 47.551 39.356 8.337 138.774 o
-6 -3 -4 397.418 358.286 19.290 6.406 o
-6 -3 -3 92.360 111.305 10.929 53.063 o
-6 -3 -2 6.777 10.416 6.359 490.213 o
-6 -3 -1 31.217 58.204 8.728 146.929 o
-6 -2 -36 1.463 -8.088 14.032 143.092 o
-6 -2 -35 24.203 22.614 9.749 183.026 o
-6 -2 -34 190.983 224.020 15.709 18.183 o
-6 -2 -33 427.116 399.406 24.695 5.322 o
-6 -2 -32 30.470 33.503 7.744 195.152 o
-6 -2 -31 134.434 117.177 11.194 37.695 o
-6 -2 -30 16.976 13.449 7.354 310.475 o
-6 -2 -29 74.490 64.451 8.723 85.459 o
-6 -2 -28 29.998 37.502 7.628 192.853 o
-6 -2 -27 12.980 22.005 6.286 366.712 o
-6 -2 -26 69.706 63.938 8.884 89.315 o
-6 -2 -25 309.164 292.540 15.768 9.754 o
-6 -2 -24 146.694 152.867 10.597 31.387 o
-6 -2 -23 359.770 297.278 15.510 8.162 o
-6 -2 -22 45.426 26.125 6.341 185.890 o
-6 -2 -21 528.476 570.514 23.103 3.475 o
-6 -2 -20 192.674 155.567 9.837 23.987 o
-6 -2 -19 64.316 66.617 6.750 104.699 o
-6 -2 -18 57.960 59.739 6.103 122.519 o
-6 -2 -17 11.948 12.468 4.041 644.432 o
-6 -2 -16 398.073 394.726 13.632 6.323 o
-6 -2 -15 67.232 71.311 5.884 102.210 o
-6 -2 -14 92.535 71.188 6.112 76.297 o
-6 -2 -13 153.413 133.822 7.242 34.257 o
-6 -2 -12 1.639 9.273 4.795 893.399 o
-6 -2 -11 287.088 259.221 12.597 11.659 o
-6 -2 -10 471.876 465.464 29.379 4.228 o
-6 -2 -9 34.072 28.176 5.283 245.484 o
-6 -2 -8 237.090 252.607 14.506 14.166 o
-6 -2 -7 4.637 11.394 4.725 762.062 o
-6 -2 -6 218.527 217.412 12.942 17.042 o
-6 -2 -5 46.344 51.431 6.908 144.847 o
-6 -2 -4 19.757 27.203 5.353 335.866 o
-6 -2 -3 162.224 166.103 9.080 28.191 o
-6 -2 -2 45.495 52.461 5.900 155.815 o
-6 -2 -1 76.628 80.219 7.029 83.203 o
-6 -1 -39 327.501 360.287 42.389 5.653 o
-6 -1 -38 58.424 52.641 9.580 102.602 o
-6 -1 -37 179.595 204.363 22.081 17.202 o
-6 -1 -36 79.987 98.135 11.068 61.632 o
-6 -1 -35 274.960 262.464 19.026 11.185 o
-6 -1 -34 155.727 145.155 12.682 28.881 o
-6 -1 -33 36.945 30.395 7.721 181.302 o
-6 -1 -32 43.703 28.704 7.428 170.437 o
-6 -1 -31 5.070 2.709 6.174 602.834 o
-6 -1 -30 11.813 13.316 6.015 441.151 o
-6 -1 -29 20.984 23.503 5.920 316.634 o
-6 -1 -28 27.962 23.483 5.667 280.781 o
-6 -1 -27 15.111 11.978 4.755 512.570 o
-6 -1 -26 74.594 51.943 6.558 102.003 o
-6 -1 -25 564.179 580.741 21.697 3.213 o
-6 -1 -24 117.941 92.101 7.100 52.874 o
-6 -1 -23 114.376 86.760 6.706 56.408 o
-6 -1 -22 160.662 145.464 9.664 30.017 o
-6 -1 -21 237.507 266.367 12.376 14.126 o
-6 -1 -20 374.098 427.339 15.806 6.374 o
-6 -1 -19 1047.820 1068.520 32.047 1.018 o
-6 -1 -18 1716.360 1890.890 52.440 0.372 o
-6 -1 -17 179.928 185.958 9.624 23.740 o
-6 -1 -16 1419.080 1445.500 38.763 0.571 o
-6 -1 -15 26.347 38.717 4.236 283.543 o
-6 -1 -14 1880.980 2005.810 52.509 0.320 o
-6 -1 -13 506.957 480.827 15.206 4.203 o
-6 -1 -12 566.471 757.535 20.830 2.695 o
-6 -1 -11 731.841 642.708 18.277 2.234 o
-6 -1 -10 778.734 811.371 23.059 1.776 o
-6 -1 -9 1459.760 1586.620 44.467 0.515 o
-6 -1 -8 1780.520 1886.480 48.827 0.358 o
-6 -1 -7 1347.220 1359.960 38.405 0.634 o
-6 -1 -6 5375.770 5716.450 127.181 0.041 o
-6 -1 -5 3138.310 3195.670 66.056 0.122 o
-6 -1 -4 2186.290 2108.570 46.298 0.258 o
-6 -1 -3 215.317 211.947 7.546 18.808 o
-6 -1 -2 2198.600 2300.430 44.958 0.242 o
-6 -1 -1 1506.900 1467.210 27.521 0.532 o
-6 0 -40 135.717 96.439 20.746 28.070 o
-6 0 -39 18.909 25.971 11.471 154.060 o
-6 0 -38 127.115 116.502 17.134 32.185 o
-6 0 -37 355.543 357.531 28.942 6.488 o
-6 0 -36 247.574 271.230 24.577 11.049 o
-6 0 -35 1115.060 1161.610 66.492 0.809 o
-6 0 -34 288.244 367.874 28.713 7.754 o
-6 0 -33 1325.630 1338.310 92.746 0.561 o
-6 0 -32 94.069 104.533 14.866 45.122 o
-6 0 -31 396.606 451.025 42.636 4.385 o
-6 0 -30 699.559 652.959 41.176 2.107 o
-6 0 -29 559.639 541.071 44.515 2.867 o
-6 0 -28 512.339 402.663 28.533 4.172 o
-6 0 -27 384.863 441.343 28.786 5.393 o
-6 0 -26 168.479 132.603 14.781 26.316 o
-6 0 -25 1513.590 1729.390 82.330 0.431 o
-6 0 -24 994.761 1189.780 60.269 0.924 o
-6 0 -23 2213.700 2417.780 110.982 0.214 o
-6 0 -22 1605.590 1822.520 84.231 0.389 o
-6 0 -21 1867.410 2103.930 96.921 0.291 o
-6 0 -20 4228.470 4427.950 197.571 0.062 o
-6 0 -19 2447.000 2581.810 117.736 0.181 o
-6 0 -18 486.952 377.131 24.733 4.709 o
-6 0 -17 310.913 316.662 20.954 8.748 o
-6 0 -16 229.605 176.045 12.851 17.862 o
-6 0 -15 490.347 423.704 24.583 4.422 o
-6 0 -14 501.025 371.113 16.949 4.838 o
-6 0 -13 4715.450 5228.090 172.819 0.050 o
-6 0 -12 163.613 161.370 9.694 28.039 o
-6 0 -11 3535.660 3790.120 141.412 0.089 o
-6 0 -10 3928.350 4313.520 159.454 0.071 o
-6 0 -9 1319.650 1521.790 62.592 0.574 o
-6 0 -8 679.929 493.161 18.847 2.816 o
-6 0 -7 474.618 557.450 21.596 4.006 o
-6 0 -6 2005.570 1945.480 47.411 0.302 o
-6 0 -5 5781.990 6424.900 149.554 0.034 o
-6 0 -4 1419.850 1617.540 42.102 0.527 o
-6 0 -3 1565.620 1902.070 45.562 0.417 o
-6 0 -2 515.935 501.349 12.491 4.059 o
-6 0 -1 858.026 849.894 19.794 1.545 o
-5 -4 -20 7.472 21.440 17.918 81.566 o
-5 -4 -19 45.909 31.105 8.941 142.028 o
-5 -4 -18 13.370 15.383 8.343 277.802 o
-5 -4 -17 12.571 18.387 8.618 262.648 o
-5 -4 -16 13.082 18.415 8.351 271.622 o
-5 -4 -15 79.573 87.260 9.336 70.460 o
-5 -4 -14 156.423 129.460 15.434 27.867 o
-5 -4 -13 153.146 111.819 9.889 35.007 o
-5 -4 -12 184.597 206.366 12.441 20.870 o
-5 -4 -11 15.012 17.715 6.534 353.177 o
-5 -4 -10 114.211 100.443 10.951 46.670 o
-5 -4 -9 38.796 36.644 8.758 152.876 o
-5 -4 -8 3.716 -0.693 7.790 432.286 o
-5 -4 -7 1.509 -2.686 7.813 450.974 o
-5 -4 -6 116.849 100.174 10.851 45.960 o
-5 -4 -5 365.302 363.624 19.282 6.984 o
-5 -4 -4 247.053 228.864 22.476 12.441 o
-5 -4 -3 14.940 34.968 10.412 175.003 o
-5 -4 -2 57.059 35.877 9.304 116.840 o
-5 -4 -1 30.294 16.071 9.110 190.591 o
-5 -3 -32 53.902 133.318 32.226 21.155 o
-5 -3 -31 162.604 177.289 22.336 19.448 o
-5 -3 -30 31.412 45.964 10.180 137.887 o
-5 -3 -29 45.989 25.629 8.789 149.065 o
-5 -3 -28 9.651 15.916 8.187 303.160 o
-5 -3 -27 106.619 88.718 24.115 28.144 o
-5 -3 -26 39.100 40.425 18.943 60.068 o
-5 -3 -25 108.705 108.738 12.521 44.441 o
-5 -3 -24 160.443 205.955 16.443 21.669 o
-5 -3 -23 52.833 48.229 10.549 103.917 o
-5 -3 -22 200.456 200.489 18.854 17.174 o
-5 -3 -21 90.749 101.756 11.845 53.671 o
-5 -3 -20 252.995 241.656 20.724 12.276 o
-5 -3 -19 81.318 68.451 10.358 71.947 o
-5 -3 -18 122.538 72.887 9.335 51.539 o
-5 -3 -17 564.587 622.884 39.658 2.748 o
-5 -3 -16 255.172 284.969 16.469 11.986 o
-5 -3 -15 181.982 172.328 11.382 23.642 o
-5 -3 -14 66.962 84.225 7.752 87.501 o
-5 -3 -13 106.122 71.288 10.800 56.114 o
-5 -3 -12 54.385 87.691 8.404 95.224 o
-5 -3 -11 289.375 300.604 20.438 9.727 o
-5 -3 -10 861.537 796.282 46.751 1.452 o
-5 -3 -9 546.118 655.685 36.357 2.827 o
-5 -3 -8 21.755 42.162 6.953 228.805 o
-5 -3 -7 322.527 310.246 15.136 9.082 o
-5 -3 -6 28.524 53.151 7.408 178.572 o
-5 -3 -5 921.407 935.026 33.890 1.286 o
-5 -3 -4 165.718 187.109 13.486 23.760 o
-5 -3 -3 846.414 979.396 91.769 1.020 o
-5 -3 -2 634.538 502.779 40.916 2.674 o
-5 -3 -1 234.801 243.122 17.576 13.897 o
-5 -2 -37 164.384 157.689 18.758 22.476 o
-5 -2 -36 287.476 334.691 18.319 9.491 o
-5 -2 -35 64.050 96.439 10.098 75.200 o
-5 -2 -34 201.294 203.046 20.899 16.227 o
-5 -2 -33 7.541 20.420 6.916 379.801 o
-5 -2 -32 312.276 330.181 21.286 8.484 o
-5 -2 -31 127.811 121.289 10.531 39.683 o
-5 -2 -30 12.317 22.467 6.315 368.739 o
-5 -2 -29 71.953 77.818 7.933 85.108 o
-5 -2 -28 52.868 35.439 6.656 150.586 o
-5 -2 -27 55.672 54.366 8.781 110.734 o
-5 -2 -26 99.751 112.328 9.547 52.461 o
-5 -2 -25 1240.840 1126.920 40.590 0.784 o
-5 -2 -24 1684.090 1743.300 71.392 0.389 o
-5 -2 -23 26.031 35.502 6.742 230.284 o
-5 -2 -22 736.408 714.497 28.583 2.013 o
-5 -2 -21 47.097 74.993 7.059 121.124 o
-5 -2 -20 1317.550 1336.610 42.861 0.653 o
-5 -2 -19 418.039 300.556 13.830 6.846 o
-5 -2 -18 460.260 497.829 24.418 4.355 o
-5 -2 -17 2082.790 1722.970 50.600 0.308 o
-5 -2 -16 2594.730 2774.810 71.503 0.170 o
-5 -2 -15 41.046 77.408 6.299 135.274 o
-5 -2 -14 464.176 411.369 14.592 5.117 o
-5 -2 -13 43.742 68.421 6.237 139.249 o
-5 -2 -12 1839.240 1919.600 50.889 0.339 o
-5 -2 -11 292.536 247.591 14.945 11.374 o
-5 -2 -10 300.471 230.830 11.819 11.788 o
-5 -2 -9 825.859 811.886 27.217 1.633 o
-5 -2 -8 25.347 25.770 4.271 337.347 o
-5 -2 -7 392.395 393.764 14.185 6.416 o
-5 -2 -6 39.369 53.991 6.455 162.697 o
-5 -2 -5 778.797 803.338 35.273 1.711 o
-5 -2 -4 924.156 948.939 33.494 1.272 o
-5 -2 -3 269.984 247.713 13.865 12.591 o
-5 -2 -2 634.618 785.959 24.228 2.289 o
-5 -2 -1 1790.560 2130.140 74.343 0.316 o
-5 -1 -41 191.666 221.440 39.492 9.904 o
-5 -1 -40 15.095 9.615 8.208 289.890 o
-5 -1 -39 154.913 145.554 12.106 29.415 o
-5 -1 -38 64.921 38.607 8.246 112.928 o
-5 -1 -37 22.720 17.762 6.791 288.370 o
-5 -1 -36 107.250 97.705 10.102 51.349 o
-5 -1 -35 29.783 29.457 7.942 199.273 o
-5 -1 -34 137.020 134.559 11.999 34.154 o
-5 -1 -33 110.884 114.230 11.566 44.455 o
-5 -1 -32 17.967 23.065 6.953 293.992 o
-5 -1 -31 63.025 63.044 8.448 98.954 o
-5 -1 -30 351.429 322.345 15.947 8.020 o
-5 -1 -29 313.412 279.493 13.193 10.093 o
-5 -1 -28 119.240 121.271 8.297 45.014 o
-5 -1 -27 116.172 124.932 8.099 45.688 o
-5 -1 -26 13.637 32.310 5.645 351.764 o
-5 -1 -25 40.269 27.299 5.093 223.107 o
-5 -1 -24 125.578 133.586 8.150 41.082 o
-5 -1 -23 65.446 74.034 6.377 100.546 o
-5 -1 -22 74.982 43.526 4.961 114.764 o
-5 -1 -21 304.098 265.748 10.917 10.945 o
-5 -1 -20 743.928 744.667 22.201 1.985 o
-5 -1 -19 297.202 201.820 8.917 13.014 o
-5 -1 -18 89.928 83.625 5.610 74.638 o
-5 -1 -17 406.515 358.839 11.704 6.575 o
-5 -1 -16 71.801 99.016 5.529 83.665 o
-5 -1 -15 133.243 118.092 6.041 42.965 o
-5 -1 -14 110.818 166.103 13.342 35.045 o
-5 -1 -13 652.910 635.080 19.716 2.581 o
-5 -1 -12 602.045 620.524 17.174 2.913 o
-5 -1 -11 505.666 606.672 16.303 3.630 o
-5 -1 -10 1549.610 1239.930 28.688 0.565 o
-5 -1 -9 1311.420 1413.580 32.364 0.645 o
-5 -1 -8 707.923 683.448 16.729 2.257 o
-5 -1 -7 1286.130 1100.580 20.978 0.784 o
-5 -1 -6 643.830 758.047 14.832 2.379 o
-5 -1 -5 3386.100 3351.020 59.450 0.108 o
-5 -1 -4 999.654 1056.250 18.795 1.115 o
-5 -1 -3 1462.790 1532.230 29.665 0.536 o
-5 -1 -2 1120.820 944.896 15.406 1.034 o
-5 -1 -1 342.901 388.915 9.815 7.730 o
-4 -4 -22 21.878 -17.027 18.587 74.940 o
-4 -4 -21 0.008 -3.615 10.422 262.018 o
-4 -4 -20 3.735 2.317 8.005 401.231 o
-4 -4 -19 7.115 -1.400 7.968 386.717 o
-4 -4 -18 0.479 1.824 8.108 420.777 o
-4 -4 -17 3.446 -3.185 8.046 409.434 o
-4 -4 -16 13.314 15.170 8.296 280.746 o
-4 -4 -15 52.827 62.297 8.692 109.960 o
-4 -4 -14 81.210 105.828 9.917 62.185 o
-4 -4 -13 39.142 56.400 8.224 139.846 o
-4 -4 -12 82.044 134.546 11.003 52.357 o
-4 -4 -11 5.626 10.314 6.773 462.065 o
-4 -4 -10 1.835 7.828 6.384 582.545 o
-4 -4 -9 37.540 52.202 9.276 134.169 o
-4 -4 -8 3.943 4.013 6.994 496.669 o
-4 -4 -7 11.450 5.463 8.741 291.740 o
-4 -4 -6 18.272 -1.155 7.904 314.620 o
-4 -4 -5 27.111 35.048 9.085 175.068 o
-4 -4 -4 8.612 11.011 8.261 318.774 o
-4 -4 -3 64.275 83.011 10.881 76.486 o
-4 -4 -2 82.436 108.960 13.306 51.968 o
-4 -4 -1 0.808 3.001 9.163 326.622 o
-4 -3 -32 7.354 -3.027 8.461 346.838 o
-4 -3 -31 9.196 5.543 8.955 291.060 o
-4 -3 -30 12.087 6.405 8.249 312.688 o
-4 -3 -29 59.024 39.366 9.751 108.315 o
-4 -3 -28 21.294 22.682 14.038 113.071 o
-4 -3 -27 15.243 35.578 9.549 194.127 o
-4 -3 -26 10.672 2.014 7.231 409.958 o
-4 -3 -25 13.113 6.000 6.990 388.780 o
-4 -3 -24 101.832 107.864 14.477 43.104 o
-4 -3 -23 83.574 91.615 9.515 66.020 o
-4 -3 -22 2.049 0.542 5.612 820.484 o
-4 -3 -21 10.211 5.557 5.780 540.742 o
-4 -3 -20 0.339 8.152 5.690 738.626 o
-4 -3 -19 60.751 30.856 7.563 130.804 o
-4 -3 -18 447.597 526.743 24.441 4.336 o
-4 -3 -17 65.960 92.985 10.661 72.826 o
-4 -3 -16 5.769 3.883 5.069 775.479 o
-4 -3 -15 196.430 240.710 11.030 18.440 o
-4 -3 -14 43.646 51.610 5.962 160.671 o
-4 -3 -13 458.209 450.774 15.916 4.903 o
-4 -3 -12 203.621 241.094 11.363 17.703 o
-4 -3 -11 76.591 84.094 7.076 81.380 o
-4 -3 -10 86.869 79.296 7.341 74.248 o
-4 -3 -9 8.498 -0.316 5.218 721.841 o
-4 -3 -8 3.652 9.818 4.964 770.548 o
-4 -3 -7 58.459 64.204 6.888 113.386 o
-4 -3 -6 127.331 129.097 11.719 37.391 o
-4 -3 -5 62.012 53.379 7.259 113.645 o
-4 -3 -4 273.704 309.583 18.570 10.380 o
-4 -3 -3 504.528 468.306 19.932 4.186 o
-4 -3 -2 114.123 159.110 10.836 37.921 o
-4 -3 -1 378.921 431.463 31.964 5.343 o
-4 -2 -39 62.387 92.177 22.911 36.119 o
-4 -2 -38 0.469 -9.243 10.853 240.314 o
-4 -2 -37 19.867 19.710 10.937 168.886 o
-4 -2 -36 44.792 53.460 8.485 129.792 o
-4 -2 -35 2.581 -13.175 6.700 587.559 o
-4 -2 -34 0.725 6.940 6.516 589.231 o
-4 -2 -33 116.246 154.361 11.715 37.007 o
-4 -2 -32 82.490 66.022 8.016 80.761 o
-4 -2 -31 43.807 40.255 6.944 162.565 o
-4 -2 -30 0.774 -5.012 5.482 914.906 o
-4 -2 -29 146.626 173.384 15.866 25.733 o
-4 -2 -28 65.617 63.645 7.228 102.415 o
-4 -2 -27 8.701 0.493 4.964 758.590 o
-4 -2 -26 9.011 13.511 5.616 514.673 o
-4 -2 -25 12.387 19.176 8.023 287.935 o
-4 -2 -24 155.857 184.202 11.567 26.410 o
-4 -2 -23 65.059 72.097 6.916 99.633 o
-4 -2 -22 75.175 71.572 7.393 87.171 o
-4 -2 -21 18.963 22.058 5.632 350.709 o
-4 -2 -20 70.189 59.907 6.792 101.381 o
-4 -2 -19 19.047 17.739 5.390 382.121 o
-4 -2 -18 399.766 465.402 24.934 5.234 o
-4 -2 -17 136.652 135.854 7.701 37.940 o
-4 -2 -16 218.805 197.849 7.885 19.087 o
-4 -2 -15 177.598 196.240 8.109 23.895 o
-4 -2 -14 87.200 58.082 4.974 90.184 o
-4 -2 -13 370.112 448.020 17.419 6.185 o
-4 -2 -12 1077.310 1170.900 30.652 0.931 o
-4 -2 -11 25.581 23.218 4.623 333.608 o
-4 -2 -10 227.455 212.969 8.497 17.486 o
-4 -2 -9 214.087 184.542 9.006 19.980 o
-4 -2 -8 1333.470 1431.640 36.174 0.623 o
-4 -2 -7 155.292 170.769 6.929 30.061 o
-4 -2 -6 26.806 43.130 3.561 281.250 o
-4 -2 -5 87.550 80.762 4.683 79.759 o
-4 -2 -4 132.186 129.388 8.045 39.831 o
-4 -2 -3 924.799 943.460 21.208 1.315 o
-4 -2 -2 1489.170 1604.170 34.971 0.505 o
-4 -2 -1 40.293 67.650 5.434 154.624 o
-4 -1 -41 275.589 331.672 31.295 8.119 o
-4 -1 -40 0.449 8.152 7.058 507.058 o
-4 -1 -39 666.310 806.355 33.121 2.052 o
-4 -1 -38 63.062 77.934 9.209 87.375 o
-4 -1 -37 396.365 399.609 20.248 6.011 o
-4 -1 -36 21.234 21.875 6.842 283.109 o
-4 -1 -35 132.653 121.945 10.643 38.144 o
-4 -1 -34 36.825 45.688 7.568 164.380 o
-4 -1 -33 30.657 40.368 7.019 198.274 o
-4 -1 -32 248.483 234.864 12.622 14.377 o
-4 -1 -31 1197.260 1307.650 42.623 0.744 o
-4 -1 -30 247.844 326.135 14.152 11.724 o
-4 -1 -29 596.188 684.037 23.866 2.697 o
-4 -1 -28 82.644 78.745 8.651 73.521 o
-4 -1 -27 6002.850 7093.990 189.638 0.030 o
-4 -1 -26 517.574 480.153 16.136 4.084 o
-4 -1 -25 458.378 535.963 21.826 4.259 o
-4 -1 -24 961.752 1059.460 28.766 1.144 o
-4 -1 -23 330.020 328.174 11.822 8.825 o
-4 -1 -22 201.617 141.136 7.214 24.675 o
-4 -1 -21 1473.010 1628.420 41.156 0.503 o
-4 -1 -20 123.198 95.950 5.656 51.429 o
-4 -1 -19 1100.620 1235.710 30.496 0.876 o
-4 -1 -18 3249.270 3787.170 86.186 0.103 o
-4 -1 -17 5774.760 6178.530 139.642 0.035 o
-4 -1 -16 186.279 168.023 6.650 25.123 o
-4 -1 -15 4226.060 4710.110 102.022 0.063 o
-4 -1 -14 571.588 532.683 13.346 3.444 o
-4 -1 -13 532.790 630.193 14.611 3.357 o
-4 -1 -12 1527.740 1611.430 34.975 0.488 o
-4 -1 -11 711.015 798.985 16.996 2.033 o
-4 -1 -10 165.545 135.633 3.995 32.694 o
-4 -1 -9 574.204 553.174 10.133 3.380 o
-4 -1 -8 371.530 365.340 7.185 7.408 o
-4 -1 -7 5074.310 5737.720 87.919 0.044 o
-4 -1 -6 498.431 539.146 9.232 4.087 o
-4 -1 -5 22.105 26.933 1.642 449.754 o
-4 -1 -4 49.880 84.834 2.626 131.798 o
-4 -1 -3 76.049 75.307 2.404 99.023 o
-4 -1 -2 1222.960 1617.620 25.428 0.643 o
-4 -1 -1 180.593 251.161 7.147 20.431 o
-4 0 -42 445.421 529.937 38.464 3.827 o
-4 0 -41 241.340 178.786 21.484 14.290 o
-4 0 -40 62.682 52.363 12.716 79.066 o
-4 0 -39 7.795 23.742 11.281 180.518 o
-4 0 -38 29.016 27.862 8.902 182.993 o
-4 0 -37 86.529 103.033 12.367 53.886 o
-4 0 -36 666.423 671.797 35.246 2.269 o
-4 0 -35 191.279 223.856 24.062 14.987 o
-4 0 -34 729.503 843.107 40.028 1.748 o
-4 0 -33 89.364 87.389 11.722 57.789 o
-4 0 -32 73.280 76.588 9.820 76.829 o
-4 0 -31 71.076 73.522 9.443 81.313 o
-4 0 -30 4.780 11.749 6.429 500.585 o
-4 0 -29 85.703 55.609 8.635 80.058 o
-4 0 -28 464.372 518.165 26.882 4.135 o
-4 0 -27 2439.680 2755.920 108.296 0.177 o
-4 0 -26 265.732 231.207 13.409 13.330 o
-4 0 -25 125.154 123.961 9.651 41.084 o
-4 0 -24 103.719 113.770 12.143 45.915 o
-4 0 -23 174.829 166.192 10.430 25.502 o
-4 0 -22 53.883 26.323 4.731 180.738 o
-4 0 -21 453.524 488.150 18.682 4.658 o
-4 0 -20 3023.170 3352.640 104.881 0.121 o
-4 0 -19 160.395 120.716 7.683 33.888 o
-4 0 -18 262.268 322.608 12.950 11.309 o
-4 0 -17 952.717 1058.430 35.007 1.140 o
-4 0 -16 165.996 266.682 10.579 20.276 o
-4 0 -15 3040.000 2956.220 84.889 0.132 o
-4 0 -14 2272.120 2323.430 57.436 0.228 o
-4 0 -13 1886.580 2119.770 50.381 0.308 o
-4 0 -12 24291.300 27381.400 624.536 0.002 o
-4 0 -11 3919.250 4162.710 109.824 0.076 o
-4 0 -10 4553.920 4874.550 128.960 0.056 o
-4 0 -9 2339.030 2817.180 71.192 0.191 o
-4 0 -8 9828.750 10968.100 266.993 0.012 o
-4 0 -7 1885.580 1241.810 34.070 0.426 o
-4 0 -6 1028.940 960.788 27.215 1.123 o
-4 0 -5 1801.760 1693.320 45.534 0.379 o
-4 0 -4 183.037 225.286 11.581 20.338 o
-4 0 -3 7398.060 7185.430 164.583 0.023 o
-4 0 -2 32205.000 34477.900 743.321 0.001 o
-4 0 -1 1566.670 1743.340 38.521 0.447 o
-3 -4 -23 13.354 20.753 19.880 65.753 o
-3 -4 -22 9.457 16.067 7.759 327.635 o
-3 -4 -21 14.727 28.311 10.156 189.195 o
-3 -4 -20 17.096 10.907 7.561 307.116 o
-3 -4 -19 19.870 16.965 8.239 249.348 o
-3 -4 -18 13.704 13.030 8.457 276.642 o
-3 -4 -17 111.613 154.845 13.814 35.572 o
-3 -4 -16 247.186 181.777 17.839 14.926 o
-3 -4 -15 290.977 274.821 24.509 9.497 o
-3 -4 -14 188.849 206.041 26.964 14.484 o
-3 -4 -13 29.700 38.887 8.954 166.937 o
-3 -4 -12 306.004 282.478 17.390 9.857 o
-3 -4 -11 398.679 397.646 24.287 5.770 o
-3 -4 -10 61.467 62.490 8.414 101.225 o
-3 -4 -9 40.501 43.597 12.892 98.551 o
-3 -4 -8 52.488 63.605 8.595 110.267 o
-3 -4 -7 43.211 27.454 10.372 131.392 o
-3 -4 -6 42.295 50.928 8.900 131.636 o
-3 -4 -5 34.610 46.649 11.458 117.219 o
-3 -4 -4 152.187 126.365 15.003 29.179 o
-3 -4 -3 21.219 25.036 10.982 160.381 o
-3 -4 -2 15.794 14.017 9.612 221.749 o
-3 -4 -1 61.642 80.883 12.579 71.270 o
-3 -3 -33 57.722 43.457 21.726 44.340 o
-3 -3 -32 0.816 11.972 9.787 269.964 o
-3 -3 -31 98.313 70.610 12.726 54.810 o
-3 -3 -30 430.071 427.990 26.500 5.010 o
-3 -3 -29 242.604 266.552 23.412 11.593 o
-3 -3 -28 111.274 139.544 17.186 32.920 o
-3 -3 -27 104.634 128.903 10.938 45.091 o
-3 -3 -26 242.584 221.143 14.065 14.901 o
-3 -3 -25 147.767 116.800 10.620 35.040 o
-3 -3 -24 62.646 72.629 8.761 92.576 o
-3 -3 -23 180.850 149.564 11.451 25.330 o
-3 -3 -22 149.570 167.763 12.261 28.307 o
-3 -3 -21 34.344 24.887 7.774 195.856 o
-3 -3 -20 19.553 39.732 6.436 258.568 o
-3 -3 -19 177.169 129.501 9.196 28.721 o
-3 -3 -18 776.818 730.018 30.499 1.850 o
-3 -3 -17 68.648 100.115 9.155 74.172 o
-3 -3 -16 345.467 339.141 17.209 7.865 o
-3 -3 -15 890.807 840.092 35.117 1.422 o
-3 -3 -14 145.904 182.285 9.314 29.541 o
-3 -3 -13 269.514 212.753 12.852 13.734 o
-3 -3 -12 22.417 39.222 5.517 271.819 o
-3 -3 -11 274.154 224.687 10.333 13.500 o
-3 -3 -10 431.912 394.249 17.841 5.595 o
-3 -3 -9 26.782 27.869 5.091 292.384 o
-3 -3 -8 130.768 110.653 7.516 43.729 o
-3 -3 -7 44.833 71.495 8.200 118.389 o
-3 -3 -6 335.748 257.446 15.204 9.503 o
-3 -3 -5 9.573 63.217 6.675 243.283 o
-3 -3 -4 623.228 580.811 42.548 2.516 o
-3 -3 -3 867.650 872.116 56.945 1.303 o
-3 -3 -2 534.237 598.527 38.486 3.000 o
-3 -3 -1 298.632 286.695 19.684 9.750 o
-3 -2 -39 57.769 87.416 20.704 42.623 o
-3 -2 -38 54.226 48.456 8.640 117.802 o
-3 -2 -37 323.251 305.493 17.352 8.928 o
-3 -2 -36 14.530 38.258 8.461 221.868 o
-3 -2 -35 125.996 115.999 9.985 41.639 o
-3 -2 -34 40.488 47.630 7.436 155.431 o
-3 -2 -33 364.847 271.535 20.105 7.989 o
-3 -2 -32 346.472 270.110 14.787 8.991 o
-3 -2 -31 129.644 155.564 16.276 29.304 o
-3 -2 -30 82.867 62.158 8.386 80.663 o
-3 -2 -29 0.636 2.727 5.911 755.191 o
-3 -2 -28 52.843 55.403 7.515 123.998 o
-3 -2 -27 204.619 208.155 12.764 18.680 o
-3 -2 -26 801.618 694.820 28.350 1.844 o
-3 -2 -25 293.541 229.063 13.058 12.004 o
-3 -2 -24 237.532 194.585 11.275 16.844 o
-3 -2 -23 424.841 320.285 14.598 6.480 o
-3 -2 -22 25.987 60.399 7.157 179.692 o
-3 -2 -21 504.865 391.837 17.713 4.648 o
-3 -2 -20 104.184 106.327 7.179 55.884 o
-3 -2 -19 469.841 326.066 13.414 5.691 o
-3 -2 -18 690.615 610.430 21.005 2.452 o
-3 -2 -17 508.549 457.327 16.643 4.277 o
-3 -2 -16 1130.050 855.878 27.953 1.057 o
-3 -2 -15 120.252 121.068 8.753 44.159 o
-3 -2 -14 842.056 705.748 17.814 1.771 o
-3 -2 -13 283.163 274.647 14.275 11.281 o
-3 -2 -12 679.976 598.372 20.843 2.529 o
-3 -2 -11 1539.120 1279.110 30.916 0.559 o
-3 -2 -10 96.335 173.644 12.215 39.048 o
-3 -2 -9 2076.590 1758.580 40.388 0.309 o
-3 -2 -8 570.982 460.621 13.375 3.735 o
-3 -2 -7 95.939 107.141 8.336 57.750 o
-3 -2 -6 72.813 71.100 3.894 102.434 o
-3 -2 -5 934.533 1134.680 48.925 1.064 o
-3 -2 -4 3234.570 2325.680 86.135 0.139 o
-3 -2 -3 4094.700 3882.450 107.881 0.075 o
-3 -2 -2 448.462 646.414 26.739 3.718 o
-3 -2 -1 3063.380 3114.500 69.129 0.128 o
-3 -1 -42 134.998 158.097 16.657 27.893 o
-3 -1 -41 39.189 47.723 8.736 141.694 o
-3 -1 -40 39.629 29.107 8.349 165.499 o
-3 -1 -39 15.810 19.212 10.199 196.602 o
-3 -1 -38 104.595 99.832 11.934 48.438 o
-3 -1 -37 18.560 17.812 6.216 342.020 o
-3 -1 -36 50.123 23.542 7.710 157.247 o
-3 -1 -35 108.634 107.490 8.754 51.086 o
-3 -1 -34 7.394 12.637 5.352 580.501 o
-3 -1 -33 46.693 41.654 5.886 166.429 o
-3 -1 -32 28.982 28.343 6.890 229.132 o
-3 -1 -31 82.989 68.310 6.144 85.752 o
-3 -1 -30 424.195 280.196 11.602 7.027 o
-3 -1 -29 622.813 556.360 21.232 2.932 o
-3 -1 -28 77.708 107.171 6.826 72.112 o
-3 -1 -27 909.410 816.243 24.589 1.454 o
-3 -1 -26 1667.200 1493.300 39.403 0.455 o
-3 -1 -25 396.845 286.050 13.657 7.485 o
-3 -1 -24 167.495 149.062 7.412 29.585 o
-3 -1 -23 381.616 291.734 11.500 7.905 o
-3 -1 -22 55.588 52.145 4.408 145.364 o
-3 -1 -21 235.448 134.737 6.294 20.977 o
-3 -1 -20 479.862 462.732 14.419 4.607 o
-3 -1 -19 83.545 73.933 4.928 86.006 o
-3 -1 -18 1441.580 1232.800 29.241 0.624 o
-3 -1 -17 132.991 157.123 6.182 37.096 o
-3 -1 -16 3103.550 2725.220 55.144 0.138 o
-3 -1 -15 2326.340 1675.020 34.542 0.272 o
-3 -1 -14 407.002 495.217 11.809 5.403 o
-3 -1 -13 348.954 237.486 6.089 10.039 o
-3 -1 -12 325.348 287.268 7.865 9.904 o
-3 -1 -11 1126.750 911.548 17.170 1.045 o
-3 -1 -10 1055.550 726.542 13.565 1.292 o
-3 -1 -9 132.251 139.869 6.899 39.226 o
-3 -1 -8 837.519 465.309 8.560 2.213 o
-3 -1 -7 99.900 121.140 6.211 55.765 o
-3 -1 -6 600.950 351.560 7.904 4.016 o
-3 -1 -5 238.099 211.751 9.249 16.528 o
-3 -1 -4 1070.700 744.848 22.226 1.234 o
-3 -1 -3 1698.740 1012.900 22.210 0.551 o
-3 -1 -2 3854.460 2805.280 55.383 0.100 o
-3 -1 -1 2856.300 1658.600 29.105 0.203 o
-2 -4 -24 5.972 -0.434 13.373 151.981 o
-2 -4 -23 22.909 52.451 9.410 159.146 o
-2 -4 -22 6.726 19.934 7.642 339.966 o
-2 -4 -21 22.625 43.335 8.714 183.375 o
-2 -4 -20 5.969 13.273 7.587 373.704 o
-2 -4 -19 3.470 -0.920 6.861 548.611 o
-2 -4 -18 4.508 10.839 7.136 435.766 o
-2 -4 -17 59.728 45.501 9.038 109.266 o
-2 -4 -16 19.451 27.142 8.598 220.066 o
-2 -4 -15 26.700 18.068 8.012 227.488 o
-2 -4 -14 1.179 14.218 7.617 407.185 o
-2 -4 -13 147.466 179.746 19.499 22.611 o
-2 -4 -12 2.094 21.116 9.053 282.798 o
-2 -4 -11 47.365 51.744 8.471 127.161 o
-2 -4 -10 18.826 25.215 8.687 222.833 o
-2 -4 -9 39.420 61.602 10.178 115.085 o
-2 -4 -8 3.160 -3.416 7.489 470.810 o
-2 -4 -7 3.133 -4.031 7.976 418.848 o
-2 -4 -6 0.149 9.079 7.663 436.029 o
-2 -4 -5 12.191 6.349 7.722 344.007 o
-2 -4 -4 25.527 29.928 8.521 198.268 o
-2 -4 -3 9.496 9.853 7.807 344.979 o
-2 -4 -2 92.388 143.029 44.127 11.690 o
-2 -4 -1 31.348 56.798 14.539 86.917 o
-2 -3 -34 12.126 -8.424 25.986 41.061 o
-2 -3 -33 120.575 118.013 22.022 27.184 o
-2 -3 -32 96.461 118.016 18.973 35.165 o
-2 -3 -31 79.200 113.145 13.697 51.412 o
-2 -3 -30 30.087 22.769 7.089 230.796 o
-2 -3 -29 33.803 57.128 8.855 141.468 o
-2 -3 -28 47.962 40.620 7.990 140.735 o
-2 -3 -27 46.731 74.077 9.900 101.399 o
-2 -3 -26 9.708 7.974 6.813 426.200 o
-2 -3 -25 0.846 0.310 5.714 836.854 o
-2 -3 -24 23.629 46.526 6.858 215.362 o
-2 -3 -23 10.334 13.949 5.904 464.954 o
-2 -3 -22 12.281 3.171 5.268 588.100 o
-2 -3 -21 10.145 16.416 5.759 464.290 o
-2 -3 -20 46.267 62.322 7.244 131.493 o
-2 -3 -19 12.255 48.925 9.081 195.725 o
-2 -3 -18 79.852 61.801 7.211 88.091 o
-2 -3 -17 383.829 464.859 17.609 5.804 o
-2 -3 -16 209.402 234.767 10.142 17.767 o
-2 -3 -15 223.755 257.944 13.832 14.980 o
-2 -3 -14 59.879 51.485 5.499 130.253 o
-2 -3 -13 16.875 14.159 5.223 435.685 o
-2 -3 -12 30.741 39.233 5.068 239.504 o
-2 -3 -11 2.482 2.637 4.049 1313.230 o
-2 -3 -10 48.847 32.983 5.111 181.661 o
-2 -3 -9 10.030 26.573 4.700 482.582 o
-2 -3 -8 10.643 10.669 4.329 664.145 o
-2 -3 -7 0.720 12.294 4.445 964.774 o
-2 -3 -6 249.141 228.259 11.928 14.671 o
-2 -3 -5 81.021 102.452 6.992 71.022 o
-2 -3 -4 61.658 87.412 7.706 91.318 o
-2 -3 -3 2.105 2.335 4.416 1184.380 o
-2 -3 -2 390.883 549.259 21.436 4.954 o
-2 -3 -1 256.984 331.411 18.780 10.568 o
-2 -2 -39 27.814 37.797 8.068 189.988 o
-2 -2 -38 2.346 4.511 6.846 534.073 o
-2 -2 -37 33.494 28.602 7.704 194.207 o
-2 -2 -36 21.158 18.783 6.947 288.158 o
-2 -2 -35 319.004 322.673 16.504 8.877 o
-2 -2 -34 1.487 3.436 6.151 673.292 o
-2 -2 -33 529.658 573.556 23.388 3.449 o
-2 -2 -32 155.596 199.896 12.136 24.983 o
-2 -2 -31 279.599 330.886 16.087 10.087 o
-2 -2 -30 6.758 8.307 6.255 517.038 o
-2 -2 -29 75.029 66.885 12.921 66.185 o
-2 -2 -28 32.794 37.082 6.644 203.884 o
-2 -2 -27 131.521 152.448 9.484 35.666 o
-2 -2 -26 56.733 62.696 6.509 119.486 o
-2 -2 -25 184.516 178.122 9.280 23.779 o
-2 -2 -24 1.253 6.463 4.294 1152.330 o
-2 -2 -23 702.639 775.321 23.037 2.066 o
-2 -2 -22 59.345 58.517 5.315 126.105 o
-2 -2 -21 1038.190 1112.460 29.445 1.009 o
-2 -2 -20 14.304 18.538 4.013 532.461 o
-2 -2 -19 110.180 104.896 6.057 54.911 o
-2 -2 -18 43.570 44.742 4.466 187.133 o
-2 -2 -17 192.846 206.319 7.365 21.532 o
-2 -2 -16 61.128 66.895 4.274 121.311 o
-2 -2 -15 21.552 25.326 3.405 410.019 o
-2 -2 -14 1945.190 2367.010 50.417 0.274 o
-2 -2 -13 1977.800 2165.280 45.070 0.288 o
-2 -2 -12 998.873 1224.960 26.274 0.996 o
-2 -2 -11 608.918 687.486 15.989 2.703 o
-2 -2 -10 16.654 48.319 3.429 341.307 o
-2 -2 -9 526.293 503.837 12.077 3.956 o
-2 -2 -8 638.212 796.806 18.163 2.300 o
-2 -2 -7 68.246 66.544 3.724 112.461 o
-2 -2 -6 65.691 73.374 3.716 111.212 o
-2 -2 -5 90.039 83.230 4.147 77.613 o
-2 -2 -4 12.551 12.226 2.452 820.723 o
-2 -2 -3 36.220 40.874 3.074 241.643 o
-2 -2 -2 388.378 533.118 11.984 5.394 o
-2 -2 -1 1551.120 1679.240 34.151 0.467 o
-2 -1 -43 5.478 20.593 18.364 78.834 o
-2 -1 -42 420.947 521.768 26.691 4.563 o
-2 -1 -41 47.220 64.875 9.702 107.570 o
-2 -1 -40 592.804 791.571 29.963 2.389 o
-2 -1 -39 59.314 72.921 13.915 68.768 o
-2 -1 -38 440.242 506.973 20.010 4.663 o
-2 -1 -37 88.310 110.349 11.012 54.840 o
-2 -1 -36 397.301 493.692 19.040 5.328 o
-2 -1 -35 22.639 21.479 5.705 320.960 o
-2 -1 -34 52.220 60.635 7.230 123.083 o
-2 -1 -33 3.881 3.855 4.658 952.662 o
-2 -1 -32 33.638 37.817 5.290 225.310 o
-2 -1 -31 1.049 -4.814 4.449 1341.000 o
-2 -1 -30 34.262 30.800 5.406 235.720 o
-2 -1 -29 333.324 372.389 15.272 7.888 o
-2 -1 -28 91.045 125.567 7.363 57.338 o
-2 -1 -27 712.265 834.354 24.102 1.931 o
-2 -1 -26 486.472 513.837 23.603 4.046 o
-2 -1 -25 25.271 19.298 4.054 376.023 o
-2 -1 -24 350.139 412.847 19.681 6.765 o
-2 -1 -23 149.470 174.675 7.724 30.442 o
-2 -1 -22 109.593 124.857 6.329 50.329 o
-2 -1 -21 256.169 276.085 9.915 13.117 o
-2 -1 -20 670.491 768.704 21.255 2.207 o
-2 -1 -19 4.990 2.453 2.812 1705.550 o
-2 -1 -18 2802.580 3111.310 65.630 0.144 o
-2 -1 -17 201.359 205.301 5.316 21.017 o
-2 -1 -16 1168.270 1369.340 25.389 0.766 o
-2 -1 -15 51.950 70.851 2.766 141.389 o
-2 -1 -14 8549.470 10017.300 159.665 0.015 o
-2 -1 -13 99.858 73.908 2.717 75.380 o
-2 -1 -12 95.787 121.332 3.647 60.936 o
-2 -1 -11 85.492 45.250 2.171 106.783 o
-2 -1 -10 2426.170 2782.390 45.373 0.188 o
-2 -1 -9 61.061 42.165 2.215 155.777 o
-2 -1 -8 4019.000 4169.130 69.010 0.075 o
-2 -1 -7 3026.880 3325.220 56.895 0.125 o
-2 -1 -6 17275.600 19325.100 305.196 0.004 o
-2 -1 -5 106.641 114.296 2.937 57.432 o
-2 -1 -4 11502.400 12919.900 205.560 0.009 o
-2 -1 -3 4100.240 4557.170 70.968 0.068 o
-2 -1 -2 34644.100 40486.700 587.656 0.001 o
-2 -1 -1 12818.900 14687.300 213.176 0.007 o
-2 0 -43 208.845 215.209 20.084 15.616 o
-2 0 -42 103.506 119.689 15.195 39.759 o
-2 0 -41 127.431 136.443 15.691 31.992 o
-2 0 -40 53.478 68.723 10.359 94.120 o
-2 0 -39 243.758 258.028 18.893 12.725 o
-2 0 -38 16.632 15.719 9.054 235.211 o
-2 0 -37 708.251 945.767 49.201 1.596 o
-2 0 -36 211.428 320.394 20.961 12.326 o
-2 0 -35 1466.840 1900.910 79.740 0.422 o
-2 0 -34 8.133 55.485 8.226 220.842 o
-2 0 -33 1997.710 2574.480 97.243 0.236 o
-2 0 -32 504.074 609.574 27.223 3.424 o
-2 0 -31 1728.620 1995.520 73.010 0.344 o
-2 0 -30 1595.250 1913.610 69.477 0.391 o
-2 0 -29 3859.790 4890.620 151.506 0.067 o
-2 0 -28 1477.340 1729.830 57.085 0.468 o
-2 0 -27 1334.140 1635.020 53.321 0.552 o
-2 0 -26 157.901 185.080 14.932 24.070 o
-2 0 -25 11112.000 13776.700 413.893 0.008 o
-2 0 -24 49.290 130.561 8.500 79.716 o
-2 0 -23 6419.870 7366.120 222.835 0.026 o
-2 0 -22 2341.150 2906.080 90.438 0.183 o
-2 0 -21 10946.300 12469.800 344.620 0.009 o
-2 0 -20 455.975 568.442 19.343 4.186 o
-2 0 -19 839.328 923.857 26.923 1.478 o
-2 0 -18 3084.120 3565.660 93.058 0.114 o
-2 0 -17 3807.700 4733.120 111.108 0.071 o
-2 0 -16 4535.590 5267.720 117.248 0.053 o
-2 0 -15 9059.530 10391.300 217.941 0.014 o
-2 0 -14 184.187 266.397 7.078 19.277 o
-2 0 -13 19428.900 22073.700 440.638 0.003 o
-2 0 -12 463.537 432.370 10.208 5.084 o
-2 0 -11 1619.750 1622.720 34.852 0.452 o
-2 0 -10 37.356 31.383 2.037 274.503 o
-2 0 -9 17970.800 20671.800 414.486 0.003 o
-2 0 -8 165.999 106.538 4.164 36.041 o
-2 0 -7 762.285 928.233 20.180 1.678 o
-2 0 -6 1168.000 1282.760 30.816 0.795 o
-2 0 -5 319.577 300.512 8.665 9.828 o
-2 0 -4 329.829 334.764 11.342 8.761 o
-2 0 -3 609.328 569.867 17.161 3.021 o
-2 0 -2 25858.800 28367.700 726.269 0.002 o
-2 0 -1 258.999 130.597 5.106 18.902 o
-1 -4 -25 17.282 14.824 19.501 67.815 o
-1 -4 -24 30.400 10.255 9.039 200.145 o
-1 -4 -23 8.128 7.294 7.187 412.892 o
-1 -4 -22 2.394 4.039 7.189 492.033 o
-1 -4 -21 28.652 31.554 7.611 206.993 o
-1 -4 -20 17.154 11.029 7.349 317.236 o
-1 -4 -19 2.774 10.389 7.597 411.797 o
-1 -4 -18 51.151 40.349 8.281 132.184 o
-1 -4 -17 300.720 225.502 15.394 11.437 o
-1 -4 -16 128.325 140.786 12.202 35.206 o
-1 -4 -15 110.144 100.596 10.870 48.254 o
-1 -4 -14 285.997 276.191 18.765 10.517 o
-1 -4 -13 54.305 61.553 10.209 97.853 o
-1 -4 -12 35.226 45.383 10.990 122.543 o
-1 -4 -11 44.104 49.434 10.927 109.767 o
-1 -4 -10 15.922 1.545 10.972 195.342 o
-1 -4 -9 89.202 69.392 11.911 61.700 o
-1 -4 -8 26.992 28.371 9.862 167.724 o
-1 -4 -7 49.610 37.926 12.346 97.593 o
-1 -4 -6 12.920 17.950 8.820 253.836 o
-1 -4 -5 55.976 53.058 14.149 75.080 o
-1 -4 -4 102.495 87.837 15.802 43.135 o
-1 -4 -3 47.533 29.010 11.586 111.107 o
-1 -4 -2 41.737 46.252 12.811 96.998 o
-1 -4 -1 0.578 -3.601 10.112 276.215 o
-1 -3 -34 33.280 34.990 23.223 44.932 o
-1 -3 -33 5.603 18.214 8.478 303.121 o
-1 -3 -32 147.011 119.635 11.184 34.367 o
-1 -3 -31 249.136 209.205 14.461 14.776 o
-1 -3 -30 18.005 27.375 7.177 272.952 o
-1 -3 -29 117.239 110.267 12.300 41.953 o
-1 -3 -28 88.616 94.467 9.377 62.660 o
-1 -3 -27 168.503 132.699 10.276 29.369 o
-1 -3 -26 100.662 91.926 9.879 55.961 o
-1 -3 -25 102.466 100.577 9.020 54.858 o
-1 -3 -24 133.686 120.498 9.578 39.192 o
-1 -3 -23 159.795 147.750 10.221 29.620 o
-1 -3 -22 302.153 251.591 13.199 11.091 o
-1 -3 -21 37.946 37.019 9.016 150.496 o
-1 -3 -20 64.147 56.334 7.467 107.453 o
-1 -3 -19 24.444 21.910 5.676 307.865 o
-1 -3 -18 243.153 195.832 11.297 16.353 o
-1 -3 -17 144.839 137.327 9.241 34.488 o
-1 -3 -16 304.340 239.744 17.684 10.668 o
-1 -3 -15 647.466 559.877 19.842 2.800 o
-1 -3 -14 220.747 256.420 14.315 15.121 o
-1 -3 -13 1011.690 933.939 33.157 1.150 o
-1 -3 -12 668.551 690.707 41.749 2.141 o
-1 -3 -11 120.597 138.831 10.856 38.875 o
-1 -3 -10 756.393 667.408 28.544 2.025 o
-1 -3 -9 276.954 324.655 17.098 10.176 o
-1 -3 -8 306.690 301.061 21.332 9.055 o
-1 -3 -7 99.872 132.546 12.469 43.565 o
-1 -3 -6 266.708 278.486 20.164 11.002 o
-1 -3 -5 349.493 349.397 14.880 7.796 o
-1 -3 -4 197.121 213.922 14.351 18.572 o
-1 -3 -3 380.610 443.255 23.734 5.728 o
-1 -3 -2 390.434 389.106 15.773 6.427 o
-1 -3 -1 455.576 518.663 31.265 4.063 o
-1 -2 -40 49.858 26.376 12.225 103.873 o
-1 -2 -39 204.596 173.023 14.593 19.690 o
-1 -2 -38 2.124 21.882 7.580 370.595 o
-1 -2 -37 266.793 235.295 15.899 12.730 o
-1 -2 -36 99.602 124.448 12.854 44.250 o
-1 -2 -35 109.613 102.358 12.996 44.321 o
-1 -2 -34 128.337 90.810 9.635 45.429 o
-1 -2 -33 31.450 25.094 7.485 211.389 o
-1 -2 -32 122.290 85.737 8.702 50.022 o
-1 -2 -31 131.712 128.198 9.916 38.328 o
-1 -2 -30 756.428 626.581 22.757 2.141 o
-1 -2 -29 946.411 789.423 31.812 1.379 o
-1 -2 -28 973.843 776.841 43.415 1.288 o
-1 -2 -27 475.668 413.758 16.513 4.900 o
-1 -2 -26 259.721 255.234 11.688 13.264 o
-1 -2 -25 552.965 496.373 16.711 3.688 o
-1 -2 -24 1071.440 927.304 34.753 1.069 o
-1 -2 -23 812.202 667.147 22.753 1.889 o
-1 -2 -22 232.471 194.878 8.911 17.755 o
-1 -2 -21 299.346 208.868 8.967 12.703 o
-1 -2 -20 196.445 162.008 7.729 23.779 o
-1 -2 -19 878.659 662.500 29.778 1.672 o
-1 -2 -18 230.190 172.867 9.736 18.782 o
-1 -2 -17 589.003 480.200 21.042 3.400 o
-1 -2 -16 822.721 652.648 21.275 1.887 o
-1 -2 -15 36.410 75.076 6.386 146.080 o
-1 -2 -14 1196.950 936.509 24.836 0.938 o
-1 -2 -13 319.608 292.512 12.439 9.703 o
-1 -2 -12 1658.680 1180.960 40.226 0.520 o
-1 -2 -11 1109.690 968.380 30.111 1.009 o
-1 -2 -10 219.450 212.712 9.369 18.023 o
-1 -2 -9 990.824 717.098 21.344 1.401 o
-1 -2 -8 192.897 188.928 8.622 22.230 o
-1 -2 -7 778.322 563.753 12.903 2.236 o
-1 -2 -6 42.691 58.115 4.563 168.678 o
-1 -2 -5 643.559 529.769 16.439 2.943 o
-1 -2 -4 1058.220 963.567 31.411 1.072 o
-1 -2 -3 2723.760 2481.160 70.707 0.171 o
-1 -2 -2 4983.610 3883.960 120.185 0.057 o
-1 -2 -1 1599.200 1486.070 42.257 0.480 o
-1 -1 -43 158.368 157.178 20.937 21.651 o
-1 -1 -42 73.099 72.356 10.131 77.230 o
-1 -1 -41 117.589 103.153 9.978 46.543 o
-1 -1 -40 91.811 97.785 9.619 59.459 o
-1 -1 -39 77.964 65.744 10.219 75.732 o
-1 -1 -38 121.106 94.653 8.947 48.359 o
-1 -1 -37 1.937 6.241 5.213 830.755 o
-1 -1 -36 167.312 126.231 10.596 29.978 o
-1 -1 -35 82.952 69.984 7.691 79.892 o
-1 -1 -34 7.024 13.001 5.231 599.861 o
-1 -1 -33 41.032 32.257 6.216 192.017 o
-1 -1 -32 78.879 75.191 8.356 78.726 o
-1 -1 -31 599.036 448.360 16.782 3.512 o
-1 -1 -30 237.529 204.787 12.296 16.220 o
-1 -1 -29 104.516 117.452 8.234 51.538 o
-1 -1 -28 951.880 810.484 26.169 1.371 o
-1 -1 -27 1117.220 993.213 34.647 0.976 o
-1 -1 -26 215.424 239.961 15.294 15.802 o
-1 -1 -25 226.895 145.161 7.492 21.100 o
-1 -1 -24 307.870 205.487 8.795 12.365 o
-1 -1 -23 349.219 269.038 13.495 9.027 o
-1 -1 -22 860.432 631.725 23.991 1.794 o
-1 -1 -21 186.362 173.576 7.739 24.372 o
-1 -1 -20 305.183 226.909 8.072 12.028 o
-1 -1 -19 97.560 91.615 5.671 66.282 o
-1 -1 -18 1522.350 1090.210 22.233 0.624 o
-1 -1 -17 2155.930 1572.560 30.452 0.314 o
-1 -1 -16 65.904 106.269 5.076 87.062 o
-1 -1 -15 1132.590 782.975 21.049 1.116 o
-1 -1 -14 1155.440 891.634 15.826 1.024 o
-1 -1 -13 316.375 239.428 6.476 11.319 o
-1 -1 -12 79.579 63.559 2.098 102.508 o
-1 -1 -11 1168.720 845.873 17.597 1.033 o
-1 -1 -10 1955.370 1223.230 22.081 0.411 o
-1 -1 -9 362.162 319.282 9.875 8.134 o
-1 -1 -8 348.538 211.724 6.068 10.559 o
-1 -1 -7 9.348 32.276 3.320 548.538 o
-1 -1 -6 1499.290 861.183 32.020 0.702 o
-1 -1 -5 1863.180 1287.760 62.433 0.409 o
-1 -1 -4 613.714 475.472 30.032 3.083 o
-1 -1 -3 4852.980 3559.430 229.883 0.057 o
-1 -1 -2 14960.900 10942.000 736.519 0.006 o
-1 -1 -1 12872.800 8841.120 615.303 0.008 o
0 -4 -24 16.346 24.448 12.114 147.127 o
0 -4 -22 15.167 11.568 9.059 248.087 o
0 -4 -20 5.483 0.262 8.659 343.413 o
0 -4 -18 5.966 4.172 9.924 258.698 o
0 -4 -16 7.946 23.178 10.836 192.821 o
0 -4 -14 67.724 51.677 13.919 69.955 o
0 -4 -12 205.773 256.075 26.364 12.652 o
0 -4 -10 3.115 14.532 10.599 223.331 o
0 -4 -8 4.988 24.649 16.314 97.302 o
0 -4 -6 2.083 -13.773 15.021 124.557 o
0 -4 -4 27.761 10.118 14.174 111.210 o
0 -4 -2 15.544 5.561 11.723 171.968 o
0 -3 -33 18.032 22.278 10.223 186.824 o
0 -3 -31 217.587 226.871 22.355 14.006 o
0 -3 -29 94.188 140.153 14.980 39.887 o
0 -3 -27 67.525 119.648 20.542 37.714 o
0 -3 -25 26.446 32.661 9.246 176.336 o
0 -3 -23 73.200 91.027 11.751 64.975 o
0 -3 -21 20.153 31.563 8.390 216.053 o
0 -3 -19 30.565 35.489 9.248 163.665 o
0 -3 -17 32.768 51.131 9.299 143.032 o
0 -3 -15 356.111 301.212 19.836 7.860 o
0 -3 -13 138.887 177.673 14.310 27.740 o
0 -3 -11 127.104 140.382 12.576 35.130 o
0 -3 -9 124.710 131.445 19.816 28.206 o
0 -3 -7 120.733 128.416 10.637 40.559 o
0 -3 -5 208.774 209.734 22.189 15.057 o
0 -3 -3 152.690 232.117 27.163 15.671 o
0 -3 -1 21.330 22.812 10.456 173.375 o
0 -2 -40 68.381 61.154 22.554 38.494 o
0 -2 -38 17.585 21.177 10.118 191.907 o
0 -2 -36 6.877 -4.688 9.153 304.252 o
0 -2 -34 39.899 25.398 13.775 98.746 o
0 -2 -32 26.569 21.778 17.646 75.718 o
0 -2 -30 612.052 776.123 47.089 2.112 o
0 -2 -28 23.232 33.399 10.659 155.229 o
0 -2 -26 38.633 29.198 6.987 191.277 o
0 -2 -24 160.660 166.881 15.997 24.206 o
0 -2 -22 53.308 49.226 7.081 132.045 o
0 -2 -20 719.498 761.549 34.830 1.938 o
0 -2 -18 8.365 6.452 4.700 728.210 o
0 -2 -16 1806.390 2308.010 74.464 0.295 o
0 -2 -14 2864.790 3470.720 101.035 0.126 o
0 -2 -12 4529.650 5459.930 155.462 0.051 o
0 -2 -10 531.428 573.205 21.427 3.475 o
0 -2 -8 744.104 886.624 30.631 1.724 o
0 -2 -6 12.007 13.661 3.087 739.383 o
0 -2 -4 2603.290 3334.540 89.946 0.146 o
0 -2 -2 641.090 706.773 24.908 2.421 o
0 -1 -43 5.623 48.718 17.027 83.874 o
0 -1 -41 745.551 1000.900 105.156 1.012 o
0 -1 -39 946.637 1236.880 124.657 0.679 o
0 -1 -37 147.611 173.525 37.475 12.565 o
0 -1 -35 351.108 346.734 21.643 7.296 o
0 -1 -33 458.733 516.100 31.740 4.029 o
0 -1 -31 10.115 11.346 9.050 269.238 o
0 -1 -29 7365.900 8900.160 330.143 0.019 o
0 -1 -27 6647.670 8104.400 301.030 0.023 o
0 -1 -25 1738.540 2028.380 84.460 0.331 o
0 -1 -23 1.867 12.278 5.570 669.981 o
0 -1 -21 706.468 791.554 28.554 1.985 o
0 -1 -19 7125.610 8207.000 215.816 0.022 o
0 -1 -17 1967.950 2101.540 54.085 0.293 o
0 -1 -15 24266.400 29511.900 572.155 0.002 o
0 -1 -13 87.358 96.289 3.453 75.531 o
0 -1 -11 67.542 94.722 4.956 91.650 o
0 -1 -9 1967.580 2332.100 42.558 0.276 o
0 -1 -7 7078.200 7499.600 141.479 0.024 o
0 -1 -5 748.430 896.582 23.889 1.739 o
0 -1 -3 9477.730 10750.700 298.685 0.012 o
0 -1 -1 477.444 537.523 13.273 4.249 o
0 0 -44 1443.250 1875.770 166.793 0.326 o
0 0 -42 1379.010 1974.220 123.770 0.385 o
0 0 -40 23.995 5.061 12.304 146.557 o
0 0 -38 33.722 28.433 14.069 99.701 o
0 0 -36 1110.550 1383.000 89.889 0.667 o
0 0 -34 1260.010 1639.870 80.321 0.546 o
0 0 -32 258.262 292.100 32.099 8.907 o
0 0 -30 172.003 188.096 36.795 11.789 o
0 0 -28 1784.190 2073.930 93.336 0.312 o
0 0 -26 2908.180 3483.210 151.078 0.117 o
0 0 -24 177.636 178.534 23.067 17.809 o
0 0 -22 433.274 653.046 54.327 2.936 o
0 0 -20 3642.970 4097.860 151.026 0.081 o
0 0 -18 534.019 591.845 22.911 3.361 o
0 0 -16 3227.740 3995.420 135.294 0.096 o
0 0 -14 1528.760 1568.030 59.627 0.477 o
0 0 -12 22144.500 24604.800 892.823 0.002 o
0 0 -10 13269.600 14994.800 542.482 0.006 o
0 0 -8 7806.660 8682.440 319.856 0.018 o
0 0 -6 10509.900 11269.600 420.124 0.010 o
0 0 -4 851.272 883.729 17.351 1.530 o
0 0 4 855.448 913.662 14.731 1.495 o
0 0 6 10509.000 11651.300 343.036 0.010 o
0 0 8 7818.770 8820.230 285.905 0.018 o
0 0 10 13266.900 14866.300 484.880 0.006 o
0 0 12 22139.900 24419.700 798.199 0.002 o
0 0 14 1516.730 1545.960 52.927 0.492 o
0 0 16 3232.800 4179.940 135.099 0.093 o
0 0 18 536.746 614.724 22.742 3.266 o
0 0 20 3643.060 4014.280 173.614 0.080 o
0 0 22 430.698 671.272 56.340 2.839 o
0 0 24 180.243 168.398 24.649 17.173 o
0 0 26 2913.680 3283.170 261.110 0.102 o
0 0 28 1774.810 2009.720 161.310 0.268 o
0 0 30 171.397 143.749 23.134 19.630 o
0 0 32 254.995 284.823 33.786 8.778 o
0 0 34 1267.120 1720.570 137.196 0.428 o
0 0 36 1112.640 1494.630 120.571 0.555 o
0 0 38 32.702 35.124 17.651 70.363 o
0 0 40 20.795 3.388 15.734 100.581 o
0 0 42 1389.540 2092.360 166.971 0.317 o
0 1 1 474.744 543.210 19.557 4.121 o
0 1 3 9488.580 10606.700 337.198 0.012 o
0 1 5 726.232 927.438 19.496 1.778 o
0 1 7 7096.650 7828.130 158.905 0.023 o
0 1 9 1968.840 2391.060 53.171 0.268 o
0 1 11 68.680 96.249 3.751 92.713 o
0 1 13 81.189 96.906 3.229 80.853 o
0 1 15 24293.400 29584.400 645.305 0.002 o
0 1 17 1958.420 2125.820 65.670 0.288 o
0 1 19 7127.080 8445.190 305.135 0.021 o
0 1 21 704.070 812.249 39.868 1.861 o
0 1 23 1.619 21.153 8.505 315.223 o
0 1 25 1731.200 1965.320 91.783 0.335 o
0 1 27 6642.730 7910.270 487.994 0.021 o
0 1 29 7358.130 8649.950 530.294 0.017 o
0 1 31 19.111 8.863 9.407 226.258 o
0 1 33 459.704 500.327 36.111 3.924 o
0 1 35 354.035 406.288 30.396 5.990 o
0 1 37 146.525 160.111 19.013 24.201 o
0 1 39 950.481 1099.990 72.010 0.964 o
0 1 41 743.570 876.688 61.098 1.485 o
0 2 0 2247.150 2603.560 92.924 0.206 o
0 2 2 647.781 753.465 62.447 1.815 o
0 2 4 2596.610 3574.990 214.899 0.117 o
0 2 6 11.690 7.614 5.345 548.602 o
0 2 8 744.117 939.156 66.702 1.376 o
0 2 10 536.719 595.688 64.415 2.338 o
0 2 12 4516.200 5717.170 190.714 0.049 o
0 2 14 2850.040 3457.450 150.153 0.120 o
0 2 16 1818.270 2315.390 102.704 0.278 o
0 2 18 8.299 6.597 13.773 137.691 o
0 2 20 716.253 776.332 48.835 1.784 o
0 2 22 60.563 49.877 16.024 64.003 o
0 2 24 159.381 195.654 33.876 13.236 o
0 2 26 40.920 29.176 30.822 26.963 o
0 2 28 23.789 31.927 11.786 136.659 o
0 2 30 615.476 891.717 91.353 1.360 o
0 2 32 23.795 4.580 12.269 147.842 o
0 2 34 40.084 58.703 18.141 60.470 o
0 2 36 6.124 -3.254 15.645 112.307 o
0 2 38 17.648 -17.428 19.122 72.497 o
0 2 40 68.034 51.170 19.924 46.638 o
0 3 1 21.759 25.472 14.531 105.593 o
0 3 3 147.499 213.876 21.786 19.501 o
0 3 5 216.291 217.451 28.193 12.483 o
0 3 7 116.150 143.857 16.279 32.737 o
0 3 9 128.633 98.997 23.223 26.011 o
0 3 11 127.102 147.626 26.699 20.564 o
0 3 13 135.447 145.398 29.552 17.973 o
0 3 15 363.154 335.280 43.414 5.278 o
0 3 17 31.218 51.839 20.281 54.644 o
0 3 19 29.809 40.695 19.835 58.548 o
0 3 21 20.177 53.087 22.822 46.999 o
0 3 23 73.731 101.449 26.788 27.388 o
0 3 25 26.353 37.441 22.420 48.760 o
0 3 27 67.040 135.592 32.806 19.786 o
0 3 29 94.862 185.781 39.536 13.140 o
0 3 31 215.303 223.535 46.267 7.815 o
0 3 33 17.339 -7.391 17.341 87.003 o
0 3 35 119.135 111.478 37.085 14.867 o
0 4 0 1013.830 1402.910 86.177 0.732 o
0 4 2 13.880 25.554 10.758 179.247 o
0 4 4 26.021 49.744 21.707 50.319 o
0 4 6 2.108 4.636 18.899 78.328 o
0 4 8 4.710 4.769 18.008 85.120 o
0 4 10 2.572 -9.806 21.841 59.223 o
0 4 12 208.672 263.472 41.854 8.472 o
0 4 14 65.701 52.418 23.134 38.306 o
0 4 16 8.291 10.876 21.663 58.120 o
0 4 18 6.126 -5.616 20.058 69.252 o
0 4 20 5.579 17.562 23.267 50.569 o
0 4 22 14.227 -12.213 24.248 46.719 o
1 1 0 9642.200 6455.540 480.866 0.015 o
1 1 1 12892.300 8846.170 588.263 0.009 o
1 1 2 14834.500 10914.800 806.734 0.006 o
1 1 3 4970.080 3544.660 227.094 0.056 o
1 1 4 587.277 486.877 33.188 3.142 o
1 1 5 1904.860 1252.770 51.535 0.409 o
1 1 6 1452.150 826.856 29.399 0.752 o
1 1 7 6.364 22.417 2.376 877.246 o
1 1 8 352.311 208.508 6.116 10.469 o
1 1 9 355.904 292.818 7.882 8.786 o
1 1 10 1945.460 1168.290 18.322 0.424 o
1 1 11 1181.090 812.748 11.995 1.045 o
1 1 12 73.530 68.044 2.349 107.250 o
1 1 13 345.941 241.466 4.710 10.131 o
1 1 14 1157.110 889.367 13.592 1.025 o
1 1 15 1088.450 816.386 35.413 1.118 o
1 1 16 64.323 114.015 5.499 83.725 o
1 1 17 2149.110 1565.690 39.045 0.314 o
1 1 18 1543.030 1084.940 28.578 0.609 o
1 1 19 94.313 96.983 4.911 67.928 o
1 1 20 319.684 237.388 11.544 10.827 o
1 1 21 195.431 196.740 9.819 21.111 o
1 1 22 845.705 661.505 38.771 1.694 o
1 1 23 349.790 298.835 25.306 7.524 o
1 1 24 305.126 208.524 11.105 12.183 o
1 1 25 226.279 169.924 9.793 19.286 o
1 1 26 206.192 241.245 12.581 17.171 o
1 1 27 1129.760 996.301 35.824 0.957 o
1 1 28 973.331 782.495 39.067 1.305 o
1 1 29 93.128 156.128 11.259 43.903 o
1 1 30 231.711 202.630 16.219 15.713 o
1 1 31 586.579 489.987 24.020 3.329 o
1 1 32 83.440 57.956 8.502 81.477 o
1 1 33 43.784 27.433 7.210 175.243 o
1 1 34 8.621 10.392 6.081 494.647 o
1 1 35 85.091 54.449 8.617 81.104 o
1 1 36 166.229 114.474 11.277 30.815 o
1 1 37 1.858 -2.931 7.239 517.982 o
1 1 38 120.927 70.184 10.167 51.263 o
1 1 39 76.967 70.753 12.691 65.004 o
1 1 40 91.141 67.356 10.631 65.288 o
1 1 41 117.903 81.172 12.209 46.510 o
1 1 42 72.447 34.698 13.386 74.828 o
1 2 0 746.342 627.156 22.540 2.178 o
1 2 1 1570.740 1531.110 92.070 0.433 o
1 2 2 4958.010 3904.900 161.253 0.056 o
1 2 3 2764.860 2500.120 128.844 0.157 o
1 2 4 1015.150 922.127 50.509 1.089 o
1 2 5 670.958 548.689 32.071 2.551 o
1 2 6 52.058 65.300 11.227 91.351 o
1 2 7 754.596 552.864 24.799 2.271 o
1 2 8 194.984 207.266 17.869 17.724 o
1 2 9 998.957 755.400 34.911 1.303 o
1 2 10 221.822 242.434 13.668 15.676 o
1 2 11 1115.170 1012.010 60.405 0.893 o
1 2 12 1653.150 1185.330 50.455 0.513 o
1 2 13 315.572 297.325 19.808 9.024 o
1 2 14 1214.780 953.574 38.352 0.887 o
1 2 15 34.592 68.256 7.605 144.154 o
1 2 16 812.126 660.752 38.950 1.780 o
1 2 17 593.696 466.088 20.028 3.435 o
1 2 18 231.935 169.916 10.239 18.633 o
1 2 19 872.912 688.075 26.840 1.671 o
1 2 20 200.989 191.918 12.924 19.745 o
1 2 21 301.314 220.708 14.384 11.658 o
1 2 22 219.577 210.902 14.495 16.787 o
1 2 23 826.197 706.444 32.410 1.733 o
1 2 24 1065.600 990.122 55.001 0.973 o
1 2 25 550.278 535.731 26.911 3.365 o
1 2 26 259.539 258.377 17.321 12.259 o
1 2 27 485.056 464.889 24.682 4.263 o
1 2 28 964.882 773.470 52.299 1.256 o
1 2 29 926.773 842.658 57.401 1.231 o
1 2 30 779.290 633.926 41.111 1.888 o
1 2 31 123.602 127.008 15.847 33.460 o
1 2 32 134.049 87.433 12.372 40.303 o
1 2 33 26.405 6.682 9.530 203.621 o
1 2 34 122.060 90.193 13.088 42.237 o
1 2 35 114.577 63.650 12.092 51.166 o
1 2 36 96.856 103.162 14.973 44.268 o
1 2 37 268.745 238.110 38.021 8.228 o
1 2 38 2.372 3.026 11.267 215.064 o
1 2 39 208.139 174.293 19.340 17.392 o
1 2 40 49.078 53.324 14.151 79.191 o
1 3 0 503.022 585.650 36.642 3.275 o
1 3 1 457.188 521.589 20.819 4.373 o
1 3 2 387.054 398.327 31.029 5.518 o
1 3 3 385.410 489.953 24.142 5.300 o
1 3 4 191.761 233.704 40.324 9.531 o
1 3 5 352.218 354.935 45.652 5.102 o
1 3 6 263.324 268.665 19.828 11.401 o
1 3 7 97.278 115.065 14.473 43.389 o
1 3 8 318.838 377.400 39.786 5.905 o
1 3 9 270.972 320.194 39.498 7.146 o
1 3 10 755.013 808.000 89.306 1.246 o
1 3 11 125.983 200.919 30.400 16.377 o
1 3 12 676.551 770.776 81.242 1.482 o
1 3 13 996.230 1143.180 67.478 0.918 o
1 3 14 218.451 288.726 43.693 7.686 o
1 3 15 661.208 651.215 64.257 1.884 o
1 3 16 300.253 236.026 40.771 7.187 o
1 3 17 140.475 132.188 32.554 16.158 o
1 3 18 244.740 206.168 29.108 11.315 o
1 3 19 21.923 24.955 11.739 145.218 o
1 3 20 65.492 84.362 19.349 44.845 o
1 3 21 41.078 55.372 14.258 82.969 o
1 3 22 299.107 243.858 37.265 7.665 o
1 3 23 160.422 143.838 19.789 22.951 o
1 3 24 133.885 109.656 17.959 30.598 o
1 3 25 103.054 110.434 25.179 25.971 o
1 3 26 98.986 93.094 25.210 27.316 o
1 3 27 171.443 115.531 23.271 20.752 o
1 3 28 89.113 114.414 19.049 36.840 o
1 3 29 111.744 115.338 20.461 30.546 o
1 3 30 17.267 23.865 17.331 81.726 o
1 3 31 249.999 195.202 49.729 6.876 o
1 3 32 148.148 73.803 19.128 29.802 o
1 3 33 6.701 20.610 14.390 122.197 o
1 3 34 32.400 12.087 27.123 35.477 o
1 4 0 0.294 -9.859 10.903 238.627 o
1 4 1 0.565 6.361 9.925 274.433 o
1 4 2 42.739 46.479 15.735 74.927 o
1 4 3 46.323 41.956 15.289 77.021 o
1 4 4 101.871 94.967 14.030 45.940 o
1 4 5 56.161 71.267 17.339 56.014 o
1 4 6 14.175 21.388 14.397 115.225 o
1 4 7 47.490 50.865 15.241 74.217 o
1 4 8 27.371 41.723 26.855 35.162 o
1 4 9 90.302 64.882 17.503 45.804 o
1 4 10 15.550 23.576 14.977 105.938 o
1 4 11 43.713 12.470 19.902 58.288 o
1 4 12 37.873 37.801 16.796 72.841 o
1 4 13 54.663 56.290 17.632 58.002 o
1 4 14 281.876 305.996 48.986 5.856 o
1 4 15 112.103 144.382 23.667 24.847 o
1 4 16 131.771 144.075 23.556 22.923 o
1 4 17 296.762 303.317 42.768 6.430 o
1 4 18 52.446 70.011 19.886 48.293 o
1 4 19 3.650 17.151 15.790 106.469 o
1 4 20 16.832 31.287 24.649 42.999 o
1 4 21 27.885 42.294 25.852 37.527 o
1 4 22 2.585 5.368 17.051 95.460 o
1 4 23 8.292 12.491 16.633 95.381 o
2 0 0 7.521 27.958 2.567 707.783 o
2 0 1 269.393 129.326 8.215 17.526 o
2 0 2 25850.500 28183.300 649.623 0.002 o
2 0 3 600.857 587.181 18.630 3.003 o
2 0 4 333.823 322.894 9.139 8.945 o
2 0 5 319.438 305.661 8.167 9.769 o
2 0 6 1161.100 1282.780 30.892 0.800 o
2 0 7 759.725 911.911 20.247 1.706 o
2 0 8 181.825 105.547 3.700 32.503 o
2 0 9 17981.200 20634.100 472.613 0.003 o
2 0 10 32.781 30.142 2.356 306.449 o
2 0 11 1601.730 1561.440 38.156 0.467 o
2 0 12 471.100 422.702 12.106 5.010 o
2 0 13 19413.000 21605.400 502.230 0.003 o
2 0 14 186.629 259.148 7.969 19.220 o
2 0 15 9037.520 10241.200 238.498 0.014 o
2 0 16 4584.060 5241.420 122.843 0.053 o
2 0 17 3822.550 4683.010 116.986 0.071 o
2 0 18 3053.810 3423.300 107.219 0.117 o
2 0 19 831.053 907.423 38.143 1.457 o
2 0 20 458.150 607.777 26.240 3.811 o
2 0 21 10955.700 12210.900 456.267 0.009 o
2 0 22 2337.590 2869.450 128.972 0.175 o
2 0 23 6429.890 7210.190 316.081 0.026 o
2 0 24 52.289 116.839 12.715 65.790 o
2 0 25 11104.700 13442.500 586.420 0.008 o
2 0 26 151.155 138.514 19.074 24.907 o
2 0 27 1334.790 1541.110 76.262 0.542 o
2 0 28 1452.970 1712.780 82.036 0.454 o
2 0 29 3877.230 4852.840 215.393 0.063 o
2 0 30 1616.710 1900.100 90.136 0.370 o
2 0 31 1707.070 2036.980 94.963 0.330 o
2 0 32 499.161 624.333 42.013 3.034 o
2 0 33 2010.550 2631.690 144.852 0.211 o
2 0 34 6.400 52.860 11.878 145.127 o
2 0 35 1465.910 1946.950 110.179 0.383 o
2 0 36 215.327 324.864 27.896 10.534 o
2 0 37 708.274 919.410 77.401 1.350 o
2 0 38 15.611 9.837 10.268 207.234 o
2 0 39 242.805 260.413 25.151 11.319 o
2 0 40 55.009 79.764 15.160 63.645 o
2 0 41 128.010 129.758 18.365 29.453 o
2 0 42 104.881 99.868 24.226 27.541 o
2 0 43 206.537 249.510 33.809 10.630 o
2 1 0 177.831 481.423 42.160 6.980 o
2 1 1 12911.800 14645.200 227.256 0.007 o
2 1 2 34621.300 40442.600 641.170 0.001 o
2 1 3 4066.950 4499.630 72.624 0.070 o
2 1 4 11508.000 12873.900 210.636 0.009 o
2 1 5 106.363 119.679 2.739 56.293 o
2 1 6 17260.700 19365.000 305.245 0.004 o
2 1 7 3029.250 3350.900 54.150 0.125 o
2 1 8 4041.800 4171.820 67.209 0.074 o
2 1 9 58.268 42.826 1.623 164.368 o
2 1 10 2422.220 2818.130 41.447 0.187 o
2 1 11 82.538 45.331 1.724 111.743 o
2 1 12 93.300 120.680 2.895 63.289 o
2 1 13 97.506 70.339 2.408 79.200 o
2 1 14 8551.410 9965.230 140.694 0.015 o
2 1 15 54.065 67.835 2.530 140.952 o
2 1 16 1163.110 1387.550 25.318 0.763 o
2 1 17 203.067 190.895 5.420 21.641 o
2 1 18 2807.930 3096.560 68.327 0.143 o
2 1 19 3.713 12.754 4.446 827.228 o
2 1 20 668.629 769.633 25.700 2.177 o
2 1 21 257.290 280.774 12.785 12.555 o
2 1 22 109.381 119.483 8.711 48.436 o
2 1 23 149.529 176.600 15.993 25.027 o
2 1 24 352.698 381.823 19.041 7.074 o
2 1 25 22.542 17.551 5.178 361.038 o
2 1 26 483.256 505.425 22.339 4.150 o
2 1 27 713.853 848.423 33.431 1.838 o
2 1 28 92.640 129.506 11.279 48.638 o
2 1 29 332.505 392.869 42.046 5.418 o
2 1 30 33.473 47.235 7.960 164.745 o
2 1 31 0.997 -16.052 7.547 488.106 o
2 1 32 33.992 21.259 6.576 230.929 o
2 1 33 4.758 1.023 5.964 662.362 o
2 1 34 50.125 60.419 8.143 119.205 o
2 1 35 23.989 16.291 6.618 292.110 o
2 1 36 400.913 443.258 24.246 5.404 o
2 1 37 87.475 119.730 11.284 52.572 o
2 1 38 439.411 486.978 25.103 4.612 o
2 1 39 60.267 74.668 9.913 87.719 o
2 1 40 591.851 737.724 34.335 2.450 o
2 1 41 46.704 39.123 9.115 131.704 o
2 1 42 421.170 534.923 36.841 4.075 o
2 2 0 63.855 194.724 9.318 50.642 o
2 2 1 1570.680 1649.830 39.465 0.462 o
2 2 2 391.972 502.860 19.710 5.313 o
2 2 3 35.878 37.925 4.032 236.931 o
2 2 4 14.123 9.311 3.057 744.959 o
2 2 5 90.168 89.060 4.413 74.678 o
2 2 6 65.394 71.978 4.386 110.319 o
2 2 7 64.356 58.392 4.396 122.474 o
2 2 8 637.097 804.537 25.438 2.232 o
2 2 9 530.292 510.936 17.865 3.797 o
2 2 10 16.630 47.459 4.252 320.746 o
2 2 11 607.386 674.099 28.078 2.612 o
2 2 12 1002.220 1208.840 33.456 0.986 o
2 2 13 1993.430 2129.760 74.056 0.278 o
2 2 14 1936.360 2414.010 83.465 0.261 o
2 2 15 17.528 37.256 5.152 322.189 o
2 2 16 63.359 66.701 4.947 114.882 o
2 2 17 194.566 183.649 9.359 22.119 o
2 2 18 42.831 53.360 7.100 148.109 o
2 2 19 109.920 112.869 9.199 48.783 o
2 2 20 15.926 21.747 6.319 341.890 o
2 2 21 1037.600 1162.240 44.448 0.945 o
2 2 22 59.048 77.552 8.473 95.278 o
2 2 23 700.370 796.068 33.424 1.956 o
2 2 24 0.984 2.049 6.160 699.315 o
2 2 25 182.767 196.096 13.590 21.161 o
2 2 26 58.047 61.855 9.160 100.747 o
2 2 27 130.541 174.123 13.422 30.180 o
2 2 28 33.827 41.197 11.225 124.361 o
2 2 29 74.448 79.947 19.366 43.169 o
2 2 30 6.995 3.600 9.186 293.319 o
2 2 31 276.285 317.335 21.863 9.684 o
2 2 32 154.626 153.558 15.798 26.051 o
2 2 33 531.538 550.955 39.251 3.134 o
2 2 34 1.276 -5.135 9.543 306.641 o
2 2 35 318.951 332.678 27.924 7.554 o
2 2 36 21.528 1.521 10.414 198.357 o
2 2 37 34.380 32.711 12.337 115.581 o
2 2 38 2.161 -3.072 12.104 190.393 o
2 2 39 26.916 22.378 11.733 139.847 o
2 2 40 15.649 9.455 17.205 86.859 o
2 3 0 40.438 21.128 6.112 215.590 o
2 3 1 256.751 333.435 16.639 10.843 o
2 3 2 389.320 531.342 53.539 3.558 o
2 3 3 2.055 1.109 5.911 738.499 o
2 3 4 62.753 106.169 18.007 46.381 o
2 3 5 81.326 121.252 14.913 46.374 o
2 3 6 245.454 211.662 23.489 12.659 o
2 3 7 0.736 21.068 8.150 343.279 o
2 3 8 10.098 -0.477 6.705 477.498 o
2 3 9 9.991 10.689 6.917 401.497 o
2 3 10 46.904 48.196 8.219 133.369 o
2 3 11 2.444 7.221 5.638 705.610 o
2 3 12 30.595 48.346 7.287 181.523 o
2 3 13 16.675 10.422 5.918 410.504 o
2 3 14 59.378 61.049 7.341 111.445 o
2 3 15 224.904 275.997 15.777 13.928 o
2 3 16 204.229 236.457 15.454 16.701 o
2 3 17 382.241 472.205 24.212 5.465 o
2 3 18 83.063 61.991 15.749 53.602 o
2 3 19 12.481 20.449 19.134 70.820 o
2 3 20 48.699 61.597 13.872 78.531 o
2 3 21 10.261 3.515 12.228 170.237 o
2 3 22 12.230 9.099 12.150 164.431 o
2 3 23 10.166 -1.023 12.151 175.243 o
2 3 24 23.436 31.262 13.284 116.478 o
2 3 25 0.903 16.985 13.042 154.966 o
2 3 26 10.368 6.917 13.466 140.964 o
2 3 27 46.217 49.189 20.512 50.276 o
2 3 28 50.408 41.451 15.128 75.883 o
2 3 29 34.244 87.481 30.810 25.528 o
2 3 30 31.875 46.970 16.742 73.839 o
2 3 31 79.757 91.549 26.056 28.332 o
2 3 32 94.142 62.955 21.415 36.274 o
2 3 33 120.501 138.172 29.554 19.159 o
2 3 34 11.988 -7.979 25.585 42.338 o
2 4 0 2.690 29.585 13.403 137.968 o
2 4 1 30.097 47.809 13.623 99.024 o
2 4 2 92.811 116.254 27.903 23.558 o
2 4 3 10.097 25.466 10.929 183.086 o
2 4 4 25.476 41.223 9.749 159.589 o
2 4 5 12.352 0.294 8.444 317.179 o
2 4 6 0.151 -2.366 8.570 386.394 o
2 4 7 3.511 0.295 13.160 159.657 o
2 4 8 3.309 -5.659 10.435 250.799 o
2 4 9 39.356 49.100 12.942 96.715 o
2 4 10 18.721 60.944 15.787 83.790 o
2 4 11 49.087 47.954 13.832 82.999 o
2 4 12 1.913 25.236 9.888 238.155 o
2 4 13 146.424 221.267 21.182 19.624 o
2 4 14 1.165 3.166 14.675 129.869 o
2 4 15 26.290 56.657 18.090 66.098 o
2 4 16 19.783 24.442 14.656 106.128 o
2 4 17 59.444 83.898 19.463 46.083 o
2 4 18 4.421 -2.743 15.781 111.514 o
2 4 19 3.960 10.932 22.977 52.551 o
2 4 20 6.001 8.729 14.524 125.925 o
2 4 21 22.675 15.264 15.898 93.991 o
2 4 22 6.752 20.705 16.063 100.208 o
2 4 23 23.098 43.882 18.730 65.917 o
3 1 0 5546.980 4070.500 74.836 0.049 o
3 1 1 2783.680 1634.120 31.679 0.212 o
3 1 2 3888.970 2800.480 62.692 0.099 o
3 1 3 1722.760 1024.820 22.156 0.537 o
3 1 4 1046.260 720.054 17.037 1.307 o
3 1 5 226.142 208.194 9.010 17.707 o
3 1 6 622.690 355.925 7.173 3.804 o
3 1 7 96.904 124.698 8.064 53.565 o
3 1 8 862.620 485.116 9.738 2.080 o
3 1 9 126.283 135.300 4.529 43.454 o
3 1 10 1064.900 735.682 14.165 1.267 o
3 1 11 1103.920 899.935 17.251 1.082 o
3 1 12 319.345 289.730 6.650 10.145 o
3 1 13 350.849 236.752 5.936 9.988 o
3 1 14 413.212 489.473 18.418 5.161 o
3 1 15 2354.150 1640.640 32.126 0.271 o
3 1 16 3095.080 2711.480 51.441 0.139 o
3 1 17 128.631 154.849 6.878 38.144 o
3 1 18 1438.500 1279.050 30.611 0.612 o
3 1 19 78.358 92.309 5.356 81.218 o
3 1 20 470.945 470.331 17.456 4.593 o
3 1 21 235.609 139.023 8.970 20.119 o
3 1 22 52.691 59.730 6.254 130.473 o
3 1 23 396.732 312.729 15.537 7.083 o
3 1 24 163.362 142.314 15.598 25.762 o
3 1 25 407.365 341.329 21.855 6.231 o
3 1 26 1658.490 1545.470 55.773 0.438 o
3 1 27 892.539 851.256 33.704 1.414 o
3 1 28 78.553 148.355 13.535 45.864 o
3 1 29 624.726 588.866 25.644 2.772 o
3 1 30 444.851 273.018 15.956 6.488 o
3 1 31 73.828 63.633 9.364 83.480 o
3 1 32 26.698 42.177 10.171 149.313 o
3 1 33 44.530 40.794 7.754 150.116 o
3 1 34 8.256 9.122 6.953 422.981 o
3 1 35 112.569 74.332 9.839 54.614 o
3 1 36 47.074 19.766 7.357 174.393 o
3 1 37 19.178 12.770 7.606 287.877 o
3 1 38 103.941 94.083 13.219 47.084 o
3 1 39 15.485 15.679 7.953 284.205 o
3 1 40 36.443 2.326 10.073 171.155 o
3 1 41 42.168 40.056 9.433 134.687 o
3 1 42 137.182 129.931 43.058 11.242 o
3 2 0 9934.230 9441.280 214.783 0.013 o
3 2 1 3158.810 3040.530 94.142 0.123 o
3 2 2 452.396 629.967 31.415 3.623 o
3 2 3 4121.750 3920.670 124.729 0.073 o
3 2 4 3136.460 2334.860 80.041 0.145 o
3 2 5 959.511 1098.070 45.847 1.067 o
3 2 6 71.037 77.316 7.355 88.540 o
3 2 7 100.209 115.305 11.063 48.865 o
3 2 8 587.296 473.207 26.892 3.325 o
3 2 9 2082.480 1817.350 47.436 0.300 o
3 2 10 95.573 150.729 14.472 39.002 o
3 2 11 1527.190 1320.140 39.743 0.548 o
3 2 12 670.878 587.262 15.944 2.643 o
3 2 13 271.630 288.286 14.092 11.512 o
3 2 14 844.908 699.664 27.025 1.727 o
3 2 15 120.601 125.703 8.144 43.959 o
3 2 16 1132.180 868.887 30.499 1.041 o
3 2 17 514.269 452.688 23.717 4.069 o
3 2 18 713.145 647.929 36.143 2.130 o
3 2 19 440.261 357.603 27.715 5.271 o
3 2 20 98.714 134.819 20.425 31.108 o
3 2 21 511.498 386.499 22.626 4.459 o
3 2 22 27.289 78.278 9.147 131.087 o
3 2 23 437.135 330.684 20.936 5.872 o
3 2 24 235.917 212.193 20.627 13.911 o
3 2 25 297.384 220.662 15.309 11.706 o
3 2 26 801.703 747.046 43.031 1.663 o
3 2 27 195.762 174.758 28.861 14.164 o
3 2 28 58.953 42.395 10.682 99.515 o
3 2 29 0.968 -5.279 8.231 412.118 o
3 2 30 75.332 39.102 9.895 90.280 o
3 2 31 135.590 126.213 14.640 32.573 o
3 2 32 349.426 300.817 23.564 7.683 o
3 2 33 358.330 261.828 22.623 8.033 o
3 2 34 39.221 48.428 12.141 104.268 o
3 2 35 130.550 110.815 16.034 33.454 o
3 2 36 14.028 33.019 12.327 140.581 o
3 2 37 322.695 276.148 33.195 7.437 o
3 2 38 55.086 36.879 13.103 87.689 o
3 2 39 57.175 75.953 20.013 45.998 o
3 3 0 11.605 22.563 6.354 372.139 o
3 3 1 284.786 264.634 21.568 10.344 o
3 3 2 544.666 572.697 52.550 2.654 o
3 3 3 870.915 802.775 41.916 1.459 o
3 3 4 609.522 527.182 49.103 2.555 o
3 3 5 10.462 63.937 14.337 101.395 o
3 3 6 333.235 244.339 27.140 8.357 o
3 3 7 46.263 61.540 12.930 86.238 o
3 3 8 134.051 111.149 11.632 38.071 o
3 3 9 24.022 55.675 9.631 150.224 o
3 3 10 428.679 432.334 22.077 5.197 o
3 3 11 280.599 249.389 13.306 12.104 o
3 3 12 24.047 41.546 6.804 224.555 o
3 3 13 276.448 206.390 12.252 13.616 o
3 3 14 140.414 163.037 14.840 28.240 o
3 3 15 879.172 825.672 37.163 1.448 o
3 3 16 359.899 317.358 21.941 7.402 o
3 3 17 71.862 91.013 12.623 62.647 o
3 3 18 777.708 789.483 63.183 1.483 o
3 3 19 171.123 148.364 26.118 17.683 o
3 3 20 20.176 23.617 7.920 245.196 o
3 3 21 36.039 38.586 10.759 128.881 o
3 3 22 145.706 138.996 19.801 24.934 o
3 3 23 183.351 133.975 23.013 19.122 o
3 3 24 61.694 61.026 13.334 73.628 o
3 3 25 149.432 94.159 15.522 32.020 o
3 3 26 239.527 204.834 38.891 9.086 o
3 3 27 102.188 91.987 15.373 43.519 o
3 3 28 109.614 134.057 17.680 33.086 o
3 3 29 246.321 216.374 27.482 11.482 o
3 3 30 433.683 373.393 43.075 4.375 o
3 3 31 90.763 71.475 19.168 40.846 o
3 3 32 1.208 13.656 14.311 131.584 o
3 3 33 61.069 69.319 18.675 50.032 o
3 4 0 4.887 4.544 11.194 210.048 o
3 4 1 60.427 54.279 11.523 87.035 o
3 4 2 14.195 3.773 8.787 280.420 o
3 4 3 18.834 33.880 12.224 135.253 o
3 4 4 158.133 206.161 27.497 15.947 o
3 4 5 33.901 42.754 14.257 92.345 o
3 4 6 42.799 65.046 13.424 84.168 o
3 4 7 40.661 30.691 10.044 137.094 o
3 4 8 52.973 42.103 10.764 105.362 o
3 4 9 39.612 47.588 10.384 121.988 o
3 4 10 63.866 81.814 15.537 57.888 o
3 4 11 395.861 497.589 27.569 4.953 o
3 4 12 304.996 349.438 22.527 8.287 o
3 4 13 30.348 45.437 11.096 127.795 o
3 4 14 194.851 246.555 28.777 12.592 o
3 4 15 290.072 273.063 23.748 9.672 o
3 4 16 237.217 207.008 28.395 11.779 o
3 4 17 114.990 173.608 32.940 16.163 o
3 4 18 14.492 16.627 15.890 98.660 o
3 4 19 21.339 28.335 16.568 84.973 o
3 4 20 17.419 17.582 16.174 93.675 o
3 4 21 15.185 1.318 15.537 107.284 o
3 4 22 9.018 2.450 29.017 33.214 o
4 0 0 20667.200 22004.600 458.717 0.003 o
4 0 1 1574.570 1733.110 44.715 0.443 o
4 0 2 32144.800 34148.000 743.342 0.001 o
4 0 3 7406.180 7124.230 164.459 0.023 o
4 0 4 227.750 233.507 8.884 16.550 o
4 0 5 1844.770 1699.570 43.142 0.368 o
4 0 6 995.726 1023.630 33.067 1.110 o
4 0 7 1858.300 1247.300 32.298 0.435 o
4 0 8 9840.390 11034.000 253.263 0.012 o
4 0 9 2312.680 2849.600 71.112 0.192 o
4 0 10 4547.580 4930.720 121.597 0.056 o
4 0 11 3947.880 4162.150 103.508 0.075 o
4 0 12 24377.300 27579.400 624.659 0.002 o
4 0 13 1820.500 2125.210 50.420 0.321 o
4 0 14 2231.390 2341.940 61.316 0.231 o
4 0 15 3060.760 3027.080 113.084 0.126 o
4 0 16 168.029 267.621 23.193 15.402 o
4 0 17 961.228 1056.670 43.976 1.098 o
4 0 18 257.098 292.471 27.330 9.804 o
4 0 19 156.005 115.483 11.889 32.249 o
4 0 20 3033.490 3410.850 129.805 0.116 o
4 0 21 457.165 472.850 23.944 4.536 o
4 0 22 42.603 38.548 6.975 167.259 o
4 0 23 176.694 161.286 13.787 23.846 o
4 0 24 105.259 107.871 10.560 49.279 o
4 0 25 120.657 123.899 11.406 40.256 o
4 0 26 263.547 221.352 16.991 13.049 o
4 0 27 2448.610 2755.960 108.487 0.176 o
4 0 28 470.886 528.044 27.356 4.014 o
4 0 29 80.390 52.351 8.827 85.125 o
4 0 30 4.903 3.314 7.585 425.903 o
4 0 31 68.684 84.239 23.826 33.923 o
4 0 32 72.224 61.997 12.535 70.782 o
4 0 33 96.125 83.586 14.656 48.281 o
4 0 34 723.699 795.382 53.999 1.686 o
4 0 35 190.627 196.569 21.897 16.777 o
4 0 36 661.783 729.720 48.883 2.002 o
4 0 37 88.356 97.749 17.094 42.857 o
4 0 38 32.102 4.626 12.748 128.937 o
4 0 39 9.305 15.790 13.818 131.097 o
4 0 40 58.803 31.479 12.727 89.581 o
4 0 41 242.532 204.867 28.326 11.631 o
4 0 42 442.700 587.278 43.853 3.434 o
4 1 0 3785.160 4067.890 59.428 0.082 o
4 1 1 177.670 243.004 5.805 21.492 o
4 1 2 1213.200 1610.810 23.912 0.652 o
4 1 3 78.711 79.420 2.444 93.366 o
4 1 4 49.670 86.709 2.521 130.720 o
4 1 5 17.185 31.783 1.686 487.668 o
4 1 6 504.635 529.705 9.587 4.069 o
4 1 7 5075.650 5802.190 99.562 0.044 o
4 1 8 365.285 373.234 8.301 7.429 o
4 1 9 563.741 569.709 11.454 3.385 o
4 1 10 177.026 147.228 4.401 29.039 o
4 1 11 706.607 824.097 20.398 1.988 o
4 1 12 1518.640 1663.190 40.431 0.478 o
4 1 13 533.306 649.862 20.650 3.205 o
4 1 14 585.901 546.114 14.937 3.275 o
4 1 15 4226.360 4761.330 112.018 0.063 o
4 1 16 189.365 174.675 6.654 24.195 o
4 1 17 5744.400 6311.870 163.922 0.035 o
4 1 18 3254.360 3829.130 108.456 0.100 o
4 1 19 1127.460 1226.770 35.850 0.846 o
4 1 20 121.801 95.647 6.896 50.674 o
4 1 21 1470.290 1585.610 53.439 0.503 o
4 1 22 201.219 139.145 9.602 24.034 o
4 1 23 330.856 352.022 15.896 8.175 o
4 1 24 946.619 1050.410 37.443 1.146 o
4 1 25 461.662 581.687 22.608 3.989 o
4 1 26 526.027 534.473 23.330 3.627 o
4 1 27 6020.240 7173.940 240.027 0.029 o
4 1 28 71.910 86.632 9.536 75.277 o
4 1 29 587.988 742.468 30.543 2.510 o
4 1 30 252.034 325.328 17.979 11.003 o
4 1 31 1191.250 1309.270 50.648 0.733 o
4 1 32 248.825 214.889 14.474 14.612 o
4 1 33 32.143 35.801 7.444 192.539 o
4 1 34 37.928 48.851 8.294 148.599 o
4 1 35 130.868 112.429 13.353 36.599 o
4 1 36 21.646 18.358 7.308 272.457 o
4 1 37 397.753 413.211 22.292 5.772 o
4 1 38 63.042 64.443 9.409 92.677 o
4 1 39 665.941 780.390 33.062 2.098 o
4 1 40 0.211 -3.859 7.644 484.676 o
4 1 41 274.477 233.977 35.415 8.623 o
4 1 42 60.340 90.974 30.622 23.885 o
4 2 0 1924.440 2048.590 45.742 0.309 o
4 2 1 35.259 63.094 9.653 125.031 o
4 2 2 1469.410 1576.420 37.702 0.518 o
4 2 3 928.235 969.617 25.336 1.275 o
4 2 4 137.785 133.636 6.315 38.942 o
4 2 5 82.299 84.447 6.993 76.780 o
4 2 6 26.795 37.041 4.183 287.327 o
4 2 7 160.674 188.265 9.346 26.486 o
4 2 8 1328.800 1436.350 43.887 0.616 o
4 2 9 208.798 203.328 9.069 19.545 o
4 2 10 232.850 222.132 9.144 16.552 o
4 2 11 28.813 29.175 4.385 294.898 o
4 2 12 1070.320 1147.380 34.415 0.943 o
4 2 13 370.069 421.318 18.049 6.396 o
4 2 14 91.360 60.815 4.774 85.179 o
4 2 15 181.599 197.971 8.135 23.236 o
4 2 16 215.044 201.845 13.107 17.930 o
4 2 17 136.646 150.233 9.472 34.713 o
4 2 18 400.444 479.895 24.861 5.133 o
4 2 19 17.169 21.631 5.891 354.563 o
4 2 20 72.197 59.537 10.347 81.838 o
4 2 21 18.638 21.932 6.331 320.655 o
4 2 22 75.895 58.445 8.038 90.055 o
4 2 23 64.921 50.995 7.986 106.640 o
4 2 24 153.975 175.632 13.709 26.026 o
4 2 25 11.561 26.531 7.954 276.564 o
4 2 26 9.079 14.978 7.609 342.877 o
4 2 27 7.345 -2.090 8.363 353.969 o
4 2 28 66.325 36.906 8.909 107.368 o
4 2 29 147.487 157.890 23.632 20.743 o
4 2 30 0.727 -6.489 8.550 384.156 o
4 2 31 44.501 34.508 9.668 132.577 o
4 2 32 83.776 52.955 11.336 71.538 o
4 2 33 116.685 141.443 15.085 34.351 o
4 2 34 0.509 4.929 9.497 301.785 o
4 2 35 2.525 -18.532 10.972 229.763 o
4 2 36 45.027 31.517 10.981 118.941 o
4 2 37 19.599 -4.935 10.919 190.351 o
4 2 38 0.525 -16.850 11.217 224.927 o
4 3 0 73.998 90.930 10.671 68.319 o
4 3 1 375.756 391.662 42.352 4.906 o
4 3 2 114.852 144.720 12.355 37.815 o
4 3 3 514.666 434.687 24.206 4.136 o
4 3 4 275.926 296.298 19.386 10.427 o
4 3 5 64.098 66.074 11.165 81.474 o
4 3 6 129.544 150.939 12.783 33.226 o
4 3 7 55.930 56.041 7.772 116.830 o
4 3 8 4.011 14.053 6.107 532.862 o
4 3 9 7.788 7.818 5.822 557.534 o
4 3 10 86.097 85.133 11.531 60.461 o
4 3 11 76.758 87.903 12.018 62.993 o
4 3 12 204.818 245.642 15.333 16.349 o
4 3 13 462.930 495.642 23.857 4.357 o
4 3 14 43.463 50.053 6.480 157.270 o
4 3 15 191.733 258.380 12.083 17.794 o
4 3 16 5.851 4.217 6.067 590.608 o
4 3 17 63.569 85.755 9.988 79.997 o
4 3 18 445.884 547.889 26.684 4.176 o
4 3 19 62.330 66.090 9.218 93.652 o
4 3 20 0.319 24.855 7.542 375.949 o
4 3 21 10.576 3.721 6.871 434.246 o
4 3 22 2.358 14.524 8.129 355.751 o
4 3 23 84.418 85.415 13.934 54.116 o
4 3 24 101.455 79.289 14.619 47.317 o
4 3 25 12.341 2.973 10.336 223.368 o
4 3 26 10.753 -4.033 11.557 190.700 o
4 3 27 14.888 12.737 13.097 139.015 o
4 3 28 21.267 4.549 14.212 118.948 o
4 3 29 58.538 27.358 23.857 39.619 o
4 3 30 12.049 -5.625 15.409 111.537 o
4 3 31 8.716 5.225 14.309 128.590 o
4 3 32 7.341 -16.287 16.103 105.507 o
4 4 0 91.088 123.818 15.209 42.490 o
4 4 1 0.881 -6.929 11.773 203.581 o
4 4 2 79.735 95.795 16.137 47.902 o
4 4 3 64.299 70.656 13.993 66.388 o
4 4 4 8.528 10.843 10.910 203.590 o
4 4 5 27.342 3.857 15.806 95.551 o
4 4 6 18.162 9.144 11.096 179.057 o
4 4 7 11.131 14.632 8.885 265.426 o
4 4 8 3.627 8.457 8.350 351.591 o
4 4 9 36.995 27.203 8.711 167.817 o
4 4 10 1.302 2.817 7.635 458.879 o
4 4 11 5.415 15.056 7.912 348.200 o
4 4 12 83.002 128.556 13.061 48.703 o
4 4 13 38.596 56.457 10.402 117.266 o
4 4 14 82.608 121.574 15.581 44.463 o
4 4 15 53.630 83.206 16.040 59.823 o
4 4 16 12.641 17.844 14.106 122.297 o
4 4 17 3.530 12.628 10.347 234.603 o
4 4 18 0.516 1.069 18.141 86.103 o
4 4 19 7.098 6.993 15.949 105.485 o
4 4 20 3.953 -0.678 25.318 44.024 o
4 4 21 0.011 12.708 16.371 102.741 o
5 1 0 56.315 65.204 4.230 131.573 o
5 1 1 329.383 375.914 8.132 8.333 o
5 1 2 1107.030 924.118 14.992 1.065 o
5 1 3 1469.940 1514.660 24.480 0.540 o
5 1 4 995.492 1014.010 17.270 1.153 o
5 1 5 3443.320 3322.300 53.353 0.106 o
5 1 6 630.656 759.171 15.133 2.432 o
5 1 7 1251.680 1081.630 19.373 0.822 o
5 1 8 719.177 706.872 15.521 2.175 o
5 1 9 1307.400 1451.840 34.732 0.634 o
5 1 10 1546.520 1278.380 28.681 0.557 o
5 1 11 508.856 643.496 16.279 3.463 o
5 1 12 614.773 626.389 20.819 2.786 o
5 1 13 646.211 640.794 21.545 2.582 o
5 1 14 107.111 172.111 9.074 39.927 o
5 1 15 128.263 114.064 9.588 41.715 o
5 1 16 72.394 81.904 7.309 85.270 o
5 1 17 411.323 348.250 14.180 6.489 o
5 1 18 84.948 79.063 7.536 75.212 o
5 1 19 284.423 197.278 17.293 12.540 o
5 1 20 760.183 756.677 34.338 1.830 o
5 1 21 309.379 283.552 15.355 9.948 o
5 1 22 67.846 50.207 7.279 107.758 o
5 1 23 66.902 64.175 7.405 99.651 o
5 1 24 126.529 125.638 9.739 40.330 o
5 1 25 38.321 26.287 6.076 214.528 o
5 1 26 13.871 33.734 14.531 108.619 o
5 1 27 110.912 99.893 9.375 50.693 o
5 1 28 117.822 106.456 9.685 46.306 o
5 1 29 327.371 249.572 14.646 9.986 o
5 1 30 350.046 330.525 31.996 6.543 o
5 1 31 59.296 60.075 8.205 106.577 o
5 1 32 17.561 26.171 6.758 295.338 o
5 1 33 111.525 93.575 9.774 51.041 o
5 1 34 134.999 138.839 11.587 34.530 o
5 1 35 29.828 37.001 7.674 193.202 o
5 1 36 106.482 64.422 9.680 60.355 o
5 1 37 23.873 31.195 8.295 206.901 o
5 1 38 65.287 28.827 9.167 111.779 o
5 1 39 156.971 128.825 13.834 29.166 o
5 1 40 15.652 10.583 10.446 200.764 o
5 1 41 188.706 226.184 31.539 12.351 o
5 2 0 1571.580 1097.690 37.194 0.584 o
5 2 1 1809.110 2037.700 62.324 0.328 o
5 2 2 663.466 782.403 31.245 2.121 o
5 2 3 254.276 253.068 13.474 13.349 o
5 2 4 920.780 914.637 28.061 1.326 o
5 2 5 781.547 800.897 24.884 1.773 o
5 2 6 39.942 48.880 5.473 180.154 o
5 2 7 380.897 396.883 15.377 6.553 o
5 2 8 29.235 35.391 5.045 257.170 o
5 2 9 815.593 857.235 29.838 1.590 o
5 2 10 323.162 241.559 10.505 10.692 o
5 2 11 302.816 264.895 11.825 10.930 o
5 2 12 1824.730 1953.940 54.817 0.337 o
5 2 13 43.958 74.249 6.045 134.766 o
5 2 14 468.211 461.285 20.031 4.604 o
5 2 15 46.398 100.861 12.293 75.938 o
5 2 16 2591.850 2769.870 101.308 0.165 o
5 2 17 2065.790 1878.730 52.051 0.296 o
5 2 18 467.358 540.041 42.803 3.465 o
5 2 19 420.235 352.102 35.433 5.099 o
5 2 20 1330.810 1416.550 79.179 0.567 o
5 2 21 53.764 72.977 10.723 89.618 o
5 2 22 722.278 708.824 44.700 1.906 o
5 2 23 28.389 42.188 8.907 166.988 o
5 2 24 1659.060 1770.200 70.856 0.392 o
5 2 25 1248.590 1139.920 46.922 0.761 o
5 2 26 115.122 117.776 19.655 30.894 o
5 2 27 54.797 55.416 10.129 101.119 o
5 2 28 54.807 26.556 9.520 124.547 o
5 2 29 66.414 64.400 10.963 81.382 o
5 2 30 9.628 9.649 9.028 276.060 o
5 2 31 125.110 82.913 12.549 43.303 o
5 2 32 315.931 339.278 23.918 7.988 o
5 2 33 8.795 5.801 8.705 306.275 o
5 2 34 196.753 229.359 18.785 16.413 o
5 2 35 67.241 59.285 12.459 75.080 o
5 2 36 288.032 312.521 23.665 9.136 o
5 2 37 163.640 177.216 21.340 19.954 o
5 2 38 13.077 16.455 12.223 155.804 o
5 3 0 49.517 49.302 8.289 127.413 o
5 3 1 226.171 273.863 15.876 13.895 o
5 3 2 623.883 562.347 28.102 2.811 o
5 3 3 852.307 941.656 61.480 1.243 o
5 3 4 163.030 200.695 15.678 22.087 o
5 3 5 927.159 935.608 51.270 1.197 o
5 3 6 25.488 39.393 6.840 222.270 o
5 3 7 316.769 359.398 20.961 8.015 o
5 3 8 22.908 35.747 9.954 166.791 o
5 3 9 538.765 697.043 53.545 2.399 o
5 3 10 863.966 771.904 49.337 1.453 o
5 3 11 292.799 290.145 14.985 10.484 o
5 3 12 56.077 76.053 8.144 101.232 o
5 3 13 99.575 65.833 7.435 69.738 o
5 3 14 67.908 73.922 7.460 92.937 o
5 3 15 175.427 151.060 11.460 26.014 o
5 3 16 256.681 248.520 18.354 12.436 o
5 3 17 581.800 617.206 39.675 2.678 o
5 3 18 113.928 81.212 12.601 47.117 o
5 3 19 76.307 48.532 9.306 88.210 o
5 3 20 258.164 255.801 16.974 12.452 o
5 3 21 91.158 69.787 12.550 58.663 o
5 3 22 197.263 160.684 19.873 18.564 o
5 3 23 54.678 61.016 12.800 81.136 o
5 3 24 161.395 212.610 20.387 19.140 o
5 3 25 110.511 91.564 18.175 36.330 o
5 3 26 41.083 54.808 16.971 66.653 o
5 3 27 102.434 69.417 17.811 41.321 o
5 3 28 10.215 -6.462 14.612 124.645 o
5 3 29 49.329 20.144 14.448 87.861 o
5 3 30 29.927 25.625 16.315 83.218 o
5 3 31 161.560 177.768 29.909 15.351 o
5 4 0 0.015 -4.789 8.984 352.527 o
5 4 1 29.750 12.162 9.318 192.362 o
5 4 2 56.547 42.092 21.057 46.822 o
5 4 3 14.101 16.370 11.185 177.725 o
5 4 4 246.537 247.114 21.333 12.313 o
5 4 5 366.665 356.432 22.028 6.839 o
5 4 6 116.696 109.751 12.980 41.142 o
5 4 7 1.996 12.857 8.061 369.285 o
5 4 8 3.884 -1.759 8.436 371.741 o
5 4 9 41.483 20.894 8.909 161.506 o
5 4 10 111.844 94.809 11.356 47.815 o
5 4 11 14.654 7.605 9.166 253.371 o
5 4 12 182.398 218.930 23.253 16.002 o
5 4 13 154.562 140.774 12.114 29.903 o
5 4 14 160.907 162.148 16.911 23.862 o
5 4 15 76.194 74.864 15.291 55.246 o
5 4 16 12.340 24.146 12.484 146.150 o
5 4 17 14.588 14.175 9.999 212.516 o
5 4 18 12.665 14.722 12.684 148.305 o
5 4 19 44.696 41.670 11.872 104.638 o
5 4 20 7.337 14.311 9.932 236.565 o
6 0 0 76.757 113.937 4.758 74.822 o
6 0 1 854.044 847.481 20.650 1.553 o
6 0 2 527.296 495.004 14.645 3.950 o
6 0 3 1607.200 1913.850 43.573 0.404 o
6 0 4 1386.010 1652.180 42.590 0.534 o
6 0 5 5752.930 6456.620 142.732 0.034 o
6 0 6 2014.120 1973.260 52.969 0.296 o
6 0 7 467.357 555.539 17.191 4.185 o
6 0 8 717.223 515.295 17.445 2.580 o
6 0 9 1305.390 1513.970 45.215 0.606 o
6 0 10 3918.880 4243.280 120.502 0.074 o
6 0 11 3546.310 3705.490 126.552 0.091 o
6 0 12 166.492 198.807 13.881 22.732 o
6 0 13 4692.860 5177.860 173.480 0.050 o
6 0 14 491.915 367.717 19.492 4.894 o
6 0 15 499.659 391.398 29.061 4.330 o
6 0 16 241.555 196.801 13.321 15.979 o
6 0 17 303.516 298.868 24.207 8.812 o
6 0 18 525.996 437.378 24.930 3.998 o
6 0 19 2434.960 2663.510 130.840 0.175 o
6 0 20 4189.290 4582.620 197.111 0.061 o
6 0 21 1877.230 2090.620 96.197 0.291 o
6 0 22 1599.120 1761.120 83.291 0.400 o
6 0 23 2230.790 2404.670 136.044 0.203 o
6 0 24 1001.760 1223.940 74.503 0.849 o
6 0 25 1527.030 1697.340 70.479 0.444 o
6 0 26 152.850 133.713 12.943 30.202 o
6 0 27 373.765 420.138 24.060 6.000 o
6 0 28 528.520 446.463 24.907 3.935 o
6 0 29 558.345 586.474 34.679 2.985 o
6 0 30 683.213 790.738 49.907 1.840 o
6 0 31 404.518 459.501 40.807 4.375 o
6 0 32 102.864 126.226 18.230 34.316 o
6 0 33 1315.500 1637.390 89.251 0.509 o
6 0 34 289.070 402.918 33.668 6.810 o
6 0 35 1116.630 1421.950 80.217 0.678 o
6 0 36 248.611 254.608 26.627 10.878 o
6 0 37 353.818 409.848 34.078 5.683 o
6 0 38 123.730 136.516 19.826 27.973 o
6 0 39 19.597 39.441 14.417 103.016 o
6 0 40 134.567 78.306 16.546 35.254 o
6 1 0 444.179 456.796 9.358 5.197 o
6 1 1 1478.420 1478.300 27.523 0.543 o
6 1 2 2219.210 2321.690 43.577 0.238 o
6 1 3 225.262 216.656 6.050 17.908 o
6 1 4 2144.650 2113.620 38.755 0.265 o
6 1 5 3149.500 3188.310 61.419 0.122 o
6 1 6 5394.150 5715.010 121.813 0.041 o
6 1 7 1340.820 1354.780 32.362 0.645 o
6 1 8 1779.940 1942.970 53.767 0.349 o
6 1 9 1474.260 1533.780 40.495 0.523 o
6 1 10 775.819 797.750 36.381 1.717 o
6 1 11 692.883 654.901 22.016 2.338 o
6 1 12 583.782 775.720 30.127 2.460 o
6 1 13 519.526 472.733 18.790 4.047 o
6 1 14 1885.110 2066.580 71.471 0.305 o
6 1 15 28.937 34.016 6.477 227.819 o
6 1 16 1410.960 1423.350 52.796 0.566 o
6 1 17 183.509 196.138 12.197 21.654 o
6 1 18 1713.470 1837.160 67.221 0.371 o
6 1 19 1044.040 1084.390 47.135 0.972 o
6 1 20 373.685 461.401 27.505 5.483 o
6 1 21 241.057 236.864 19.331 13.305 o
6 1 22 160.471 154.101 15.289 25.564 o
6 1 23 115.649 107.123 16.039 36.991 o
6 1 24 120.464 100.064 18.754 32.717 o
6 1 25 567.961 595.089 26.866 3.057 o
6 1 26 70.206 48.898 8.026 101.279 o
6 1 27 12.452 15.144 7.029 353.882 o
6 1 28 29.013 7.761 6.855 278.640 o
6 1 29 20.191 22.803 7.348 267.113 o
6 1 30 13.687 3.680 6.897 401.238 o
6 1 31 4.707 -5.288 7.165 491.474 o
6 1 32 44.255 41.583 8.761 137.808 o
6 1 33 35.148 30.492 10.457 140.490 o
6 1 34 152.360 165.680 19.269 23.010 o
6 1 35 278.364 258.899 16.089 11.585 o
6 1 36 81.029 99.840 10.632 61.905 o
6 1 37 177.445 166.812 13.315 23.648 o
6 1 38 56.376 48.517 8.997 111.933 o
6 1 39 329.409 337.502 24.047 7.674 o
6 1 40 252.251 257.798 33.267 9.300 o
6 2 0 1.528 2.361 4.054 1411.350 o
6 2 1 78.051 71.135 7.405 84.663 o
6 2 2 45.890 57.363 6.109 147.363 o
6 2 3 160.940 158.407 12.923 26.786 o
6 2 4 21.238 24.016 5.904 313.747 o
6 2 5 46.994 39.418 5.655 171.295 o
6 2 6 216.884 234.967 11.779 16.765 o
6 2 7 5.186 10.241 4.682 771.418 o
6 2 8 235.252 244.396 12.476 14.949 o
6 2 9 32.439 34.873 5.681 228.992 o
6 2 10 472.047 490.206 23.283 4.310 o
6 2 11 288.703 295.750 12.093 10.848 o
6 2 12 1.301 14.530 4.751 816.190 o
6 2 13 150.908 143.926 8.182 33.097 o
6 2 14 95.191 80.455 6.462 70.048 o
6 2 15 70.394 65.397 6.109 100.980 o
6 2 16 392.659 430.413 27.915 5.411 o
6 2 17 12.311 28.469 6.993 310.216 o
6 2 18 57.649 80.121 9.271 91.075 o
6 2 19 58.912 50.057 10.027 100.313 o
6 2 20 197.759 171.729 18.462 18.717 o
6 2 21 530.253 530.280 34.129 3.347 o
6 2 22 44.236 76.961 12.261 86.290 o
6 2 23 358.655 341.340 24.712 6.941 o
6 2 24 147.798 121.181 15.724 29.683 o
6 2 25 311.035 273.074 57.336 4.844 o
6 2 26 66.925 60.362 12.310 75.674 o
6 2 27 14.241 11.550 10.794 192.927 o
6 2 28 32.193 30.403 11.251 133.709 o
6 2 29 74.658 58.038 23.986 34.630 o
6 2 30 17.120 12.961 12.044 155.980 o
6 2 31 134.302 165.350 21.870 22.996 o
6 2 32 31.141 28.349 10.467 148.924 o
6 2 33 423.388 387.211 25.486 5.418 o
6 2 34 189.563 220.340 22.479 15.812 o
6 2 35 27.870 18.861 10.361 165.938 o
6 2 36 1.809 -3.805 11.245 220.752 o
6 3 0 20.929 19.679 7.438 267.814 o
6 3 1 31.276 54.659 8.708 150.581 o
6 3 2 6.550 8.302 6.609 480.209 o
6 3 3 92.491 108.757 9.696 56.242 o
6 3 4 396.308 339.059 18.032 6.681 o
6 3 5 47.447 26.675 6.864 171.639 o
6 3 6 26.182 23.430 6.118 276.718 o
6 3 7 30.421 46.753 9.316 151.289 o
6 3 8 41.255 50.305 7.182 153.872 o
6 3 9 2.832 16.909 6.325 503.573 o
6 3 10 283.909 312.135 15.698 10.320 o
6 3 11 251.648 302.052 15.108 11.968 o
6 3 12 96.516 94.606 11.127 54.424 o
6 3 13 9.355 8.518 5.684 541.773 o
6 3 14 34.346 14.033 6.000 261.536 o
6 3 15 338.565 280.842 17.333 8.840 o
6 3 16 150.280 131.708 17.115 27.170 o
6 3 17 56.346 60.601 9.386 101.827 o
6 3 18 32.393 26.274 10.490 148.171 o
6 3 19 30.210 14.951 7.897 223.515 o
6 3 20 59.507 65.457 10.021 92.028 o
6 3 21 7.872 5.944 10.416 228.962 o
6 3 22 65.840 72.665 16.450 55.586 o
6 3 23 19.517 12.890 13.795 122.651 o
6 3 24 59.842 67.247 16.009 60.675 o
6 3 25 25.074 25.311 13.037 121.086 o
6 3 26 232.045 189.794 24.012 13.704 o
6 3 27 42.694 27.972 15.466 81.883 o
6 3 28 22.871 15.331 14.192 112.988 o
6 3 29 13.871 9.104 15.537 105.552 o
6 4 0 4.721 11.254 10.333 233.656 o
6 4 1 19.629 19.126 10.375 183.013 o
6 4 2 1.078 4.570 14.714 128.695 o
6 4 3 56.509 43.164 9.862 108.152 o
6 4 4 27.764 5.980 9.664 197.218 o
6 4 5 9.011 3.720 8.639 314.542 o
6 4 6 0.525 -1.823 8.508 389.348 o
6 4 7 34.899 25.434 9.275 164.694 o
6 4 8 8.014 4.602 8.476 327.780 o
6 4 9 22.600 28.754 11.206 150.528 o
6 4 10 41.130 33.032 9.900 136.308 o
6 4 11 44.662 52.036 10.277 113.586 o
6 4 12 15.723 16.985 7.769 287.835 o
6 4 13 31.443 26.542 8.435 188.048 o
6 4 14 5.844 3.069 10.000 257.535 o
6 4 15 17.860 8.316 23.312 49.241 o
6 4 16 19.918 34.267 11.527 144.823 o
6 4 17 10.117 18.906 10.525 201.839 o
6 4 18 19.221 -11.540 17.762 82.463 o
7 1 0 20.911 36.565 3.828 343.659 o
7 1 1 695.574 795.577 22.388 2.060 o
7 1 2 381.241 399.810 13.717 6.592 o
7 1 3 171.912 230.378 9.987 21.828 o
7 1 4 158.272 210.445 8.313 25.580 o
7 1 5 27.177 34.140 3.802 304.006 o
7 1 6 211.072 209.738 9.263 18.960 o
7 1 7 155.338 183.948 12.051 26.230 o
7 1 8 141.697 107.780 6.708 41.364 o
7 1 9 322.244 350.867 12.819 8.652 o
7 1 10 1067.890 1207.990 33.590 0.916 o
7 1 11 146.858 95.547 6.231 42.046 o
7 1 12 126.601 129.179 7.973 41.618 o
7 1 13 507.674 616.025 23.694 3.449 o
7 1 14 93.706 89.840 7.883 64.724 o
7 1 15 52.467 45.921 6.230 144.433 o
7 1 16 185.208 214.061 13.234 20.104 o
7 1 17 548.518 559.522 24.934 3.335 o
7 1 18 3328.030 3745.830 129.114 0.098 o
7 1 19 513.615 489.655 23.840 3.904 o
7 1 20 164.938 190.931 18.837 20.651 o
7 1 21 331.139 379.778 24.445 7.133 o
7 1 22 73.988 65.659 10.749 76.335 o
7 1 23 474.237 442.732 28.716 4.341 o
7 1 24 369.585 419.901 36.042 5.263 o
7 1 25 20.777 6.460 11.706 162.466 o
7 1 26 64.351 67.457 12.267 75.246 o
7 1 27 5.120 -4.583 7.381 461.594 o
7 1 28 232.592 245.795 17.921 13.864 o
7 1 29 55.950 44.914 9.693 109.149 o
7 1 30 276.327 315.206 29.376 8.588 o
7 1 31 10.574 -7.249 9.538 267.569 o
7 1 32 64.426 65.822 11.387 80.172 o
7 1 33 95.456 139.731 14.444 40.507 o
7 1 34 69.236 77.647 12.107 69.723 o
7 1 35 70.524 43.800 10.863 86.915 o
7 1 36 38.469 25.516 9.802 148.802 o
7 1 37 51.872 37.225 11.206 105.416 o
7 1 38 193.180 185.260 20.783 17.493 o
7 1 39 55.734 98.192 21.761 39.312 o
7 2 0 1.005 16.655 7.162 439.469 o
7 2 1 1143.160 1331.530 55.685 0.750 o
7 2 2 97.471 118.906 10.672 49.954 o
7 2 3 1474.400 1614.220 66.425 0.482 o
7 2 4 188.599 149.040 11.809 24.109 o
7 2 5 85.518 163.789 11.765 44.323 o
7 2 6 172.980 144.437 10.723 27.324 o
7 2 7 33.514 117.552 9.845 93.024 o
7 2 8 1293.400 1355.800 52.922 0.648 o
7 2 9 2674.090 2951.470 114.785 0.150 o
7 2 10 265.704 351.201 19.665 9.775 o
7 2 11 1489.670 1736.900 57.891 0.462 o
7 2 12 500.923 547.773 21.769 3.812 o
7 2 13 22.692 24.535 5.713 309.470 o
7 2 14 277.412 310.732 13.794 10.823 o
7 2 15 515.997 536.910 24.734 3.665 o
7 2 16 300.471 287.374 19.234 9.735 o
7 2 17 111.935 81.306 12.201 48.603 o
7 2 18 312.459 261.508 21.030 9.530 o
7 2 19 431.022 480.444 29.523 4.561 o
7 2 20 230.900 230.762 19.846 13.889 o
7 2 21 64.382 41.717 14.128 73.599 o
7 2 22 78.936 75.220 12.846 62.281 o
7 2 23 103.385 106.233 14.656 42.556 o
7 2 24 25.819 25.750 10.543 159.652 o
7 2 25 234.979 225.758 21.733 13.296 o
7 2 26 120.577 125.923 16.555 33.263 o
7 2 27 363.394 342.572 27.843 6.575 o
7 2 28 542.315 518.466 36.459 3.244 o
7 2 29 111.235 118.122 21.579 28.956 o
7 2 30 10.199 2.631 10.381 228.370 o
7 2 31 21.545 12.034 10.766 177.143 o
7 2 32 27.764 18.588 12.344 131.734 o
7 2 33 125.265 133.848 18.443 29.475 o
7 2 34 27.524 29.730 14.057 104.383 o
7 2 35 59.720 31.424 16.581 65.700 o
7 3 0 36.746 31.706 7.100 191.175 o
7 3 1 172.222 207.481 15.450 20.840 o
7 3 2 27.221 25.091 6.758 247.370 o
7 3 3 18.950 6.091 6.048 400.403 o
7 3 4 10.508 10.566 6.285 449.548 o
7 3 5 137.743 139.870 11.565 33.825 o
7 3 6 470.666 491.733 26.802 4.204 o
7 3 7 219.978 252.905 15.433 15.021 o
7 3 8 1.895 9.711 6.436 558.165 o
7 3 9 20.010 16.542 7.154 292.496 o
7 3 10 329.330 388.712 22.794 7.218 o
7 3 11 196.970 132.227 10.950 24.519 o
7 3 12 267.531 293.050 16.290 11.283 o
7 3 13 259.633 304.823 15.789 11.443 o
7 3 14 62.770 32.893 6.525 134.410 o
7 3 15 4.000 4.113 7.355 454.364 o
7 3 16 149.824 176.954 15.675 25.186 o
7 3 17 28.375 13.372 8.496 216.078 o
7 3 18 681.340 743.622 35.882 2.078 o
7 3 19 27.526 47.982 10.697 135.336 o
7 3 20 136.089 163.864 21.407 23.261 o
7 3 21 31.700 35.681 13.688 102.158 o
7 3 22 42.752 44.183 15.383 77.787 o
7 3 23 142.779 90.195 23.192 24.938 o
7 3 24 178.599 197.261 31.023 13.565 o
7 3 25 97.216 55.416 18.731 42.216 o
7 3 26 183.959 221.416 49.343 7.707 o
7 3 27 21.382 8.765 15.460 101.499 o
7 4 0 0.009 10.956 9.097 314.596 o
7 4 1 9.590 32.353 9.844 205.814 o
7 4 2 150.217 161.115 19.409 23.408 o
7 4 3 446.582 425.550 37.743 4.299 o
7 4 4 137.773 115.980 13.644 34.284 o
7 4 5 60.171 54.400 16.650 60.444 o
7 4 6 42.343 46.469 10.562 117.255 o
7 4 7 9.680 10.794 10.608 210.597 o
7 4 8 10.736 5.013 8.237 325.328 o
7 4 9 83.462 115.556 12.728 51.713 o
7 4 10 1.015 0.255 8.118 421.941 o
7 4 11 4.627 2.169 9.539 287.368 o
7 4 12 40.638 21.249 9.508 153.276 o
7 4 13 114.876 104.935 18.909 33.058 o
7 4 14 23.604 10.010 15.191 102.548 o
8 0 0 7536.000 8352.070 414.543 0.018 o
8 0 1 3389.990 3473.880 160.305 0.097 o
8 0 2 261.722 320.290 31.263 8.599 o
8 0 3 1493.700 1520.690 153.196 0.370 o
8 0 4 1150.830 1226.010 76.688 0.728 o
8 0 5 343.656 345.189 21.981 7.451 o
8 0 6 269.381 321.768 22.897 9.684 o
8 0 7 772.711 614.875 28.759 2.056 o
8 0 8 1752.720 1767.990 62.248 0.373 o
8 0 9 1408.800 1496.690 48.942 0.554 o
8 0 10 2844.260 3018.340 94.574 0.141 o
8 0 11 203.806 221.153 12.889 18.132 o
8 0 12 1434.090 1543.470 56.779 0.523 o
8 0 13 801.740 829.831 32.941 1.637 o
8 0 14 317.774 398.297 22.847 7.361 o
8 0 15 646.395 583.259 26.251 2.667 o
8 0 16 24.273 97.638 9.549 117.207 o
8 0 17 1116.770 1105.300 48.120 0.885 o
8 0 18 720.682 755.602 35.567 1.936 o
8 0 19 1021.800 981.745 44.780 1.066 o
8 0 20 4732.570 4732.140 214.501 0.051 o
8 0 21 1406.200 1329.550 64.482 0.576 o
8 0 22 75.375 146.931 24.097 28.429 o
8 0 23 67.873 44.718 9.652 96.250 o
8 0 24 390.473 357.497 24.530 6.215 o
8 0 25 186.765 168.578 47.203 8.568 o
8 0 26 14.210 4.012 15.200 111.376 o
8 0 27 20.108 41.007 19.033 65.661 o
8 0 28 186.869 150.212 31.825 13.908 o
8 0 29 299.723 281.881 38.868 7.064 o
8 0 30 10.392 10.386 14.754 118.029 o
8 0 31 142.098 211.767 31.513 14.693 o
8 0 32 125.951 118.743 27.011 21.560 o
8 0 33 741.662 764.832 75.106 1.447 o
8 0 34 239.446 262.937 38.734 8.461 o
8 0 35 134.416 156.229 29.508 17.731 o
8 0 36 87.901 93.693 24.471 29.626 o
8 0 37 0.693 7.577 16.225 105.607 o
8 1 0 892.109 953.699 28.079 1.343 o
8 1 1 337.931 349.844 18.173 7.845 o
8 1 2 28.382 47.474 4.492 242.237 o
8 1 3 87.931 94.659 8.458 65.360 o
8 1 4 1012.560 1084.750 32.681 1.050 o
8 1 5 317.961 297.368 11.773 9.729 o
8 1 6 366.490 278.599 19.017 7.954 o
8 1 7 1106.910 1160.010 34.378 0.899 o
8 1 8 177.693 236.694 13.129 19.762 o
8 1 9 2039.690 2023.770 56.898 0.286 o
8 1 10 913.831 942.246 29.393 1.310 o
8 1 11 54.782 66.066 6.422 120.475 o
8 1 12 405.568 364.712 15.121 6.402 o
8 1 13 34.810 39.074 5.790 208.965 o
8 1 14 482.638 401.259 20.709 4.763 o
8 1 15 1033.320 1105.060 36.859 1.002 o
8 1 16 1330.360 1390.470 53.063 0.616 o
8 1 17 62.038 54.806 8.474 104.688 o
8 1 18 264.756 259.081 14.454 12.476 o
8 1 19 1217.960 1225.460 44.276 0.756 o
8 1 20 311.384 302.699 19.881 9.062 o
8 1 21 318.020 261.696 20.178 9.459 o
8 1 22 150.415 154.785 14.034 27.940 o
8 1 23 166.862 120.088 14.176 27.975 o
8 1 24 207.211 230.836 32.287 11.343 o
8 1 25 177.852 186.993 24.133 16.960 o
8 1 26 394.586 334.642 33.622 5.674 o
8 1 27 516.567 477.133 49.951 3.106 o
8 1 28 417.937 441.530 25.812 5.111 o
8 1 29 588.208 553.307 31.396 2.977 o
8 1 30 275.941 261.460 19.946 11.010 o
8 1 31 91.467 101.980 13.144 50.266 o
8 1 32 56.138 79.731 12.601 74.944 o
8 1 33 42.192 59.537 15.003 76.181 o
8 1 34 173.919 131.393 20.510 21.677 o
8 1 35 343.740 317.547 22.887 7.685 o
8 1 36 115.462 149.030 18.907 29.295 o
8 1 37 163.741 139.601 18.294 23.911 o
8 2 0 638.446 562.616 26.881 2.752 o
8 2 1 118.500 107.576 10.050 45.341 o
8 2 2 74.176 76.269 8.577 81.272 o
8 2 3 16.210 13.276 5.976 396.691 o
8 2 4 272.405 247.637 15.813 12.163 o
8 2 5 606.996 530.758 27.000 3.014 o
8 2 6 684.767 723.666 32.300 2.139 o
8 2 7 68.063 120.624 16.406 46.982 o
8 2 8 391.949 400.842 20.519 6.060 o
8 2 9 4.576 15.242 6.425 480.443 o
8 2 10 13.888 25.140 8.930 232.488 o
8 2 11 268.316 214.373 13.400 13.662 o
8 2 12 68.887 71.204 7.955 91.056 o
8 2 13 93.228 91.111 10.852 57.382 o
8 2 14 34.410 44.734 10.480 130.276 o
8 2 15 185.585 179.099 14.997 21.141 o
8 2 16 193.772 180.097 15.411 20.062 o
8 2 17 25.705 26.372 7.048 242.846 o
8 2 18 9.902 2.378 7.499 392.889 o
8 2 19 67.640 48.242 10.545 89.346 o
8 2 20 69.153 40.606 10.646 90.805 o
8 2 21 2.575 0.532 8.860 345.314 o
8 2 22 36.310 54.379 16.537 71.298 o
8 2 23 33.813 31.923 14.646 92.925 o
8 2 24 32.423 19.331 11.339 140.214 o
8 2 25 68.634 53.772 12.819 74.168 o
8 2 26 10.709 1.160 10.195 236.295 o
8 2 27 59.748 49.415 15.030 69.309 o
8 2 28 87.662 59.959 13.666 58.957 o
8 2 29 49.710 35.908 11.531 105.524 o
8 2 30 7.677 4.043 10.338 235.388 o
8 2 31 188.458 172.928 19.963 18.744 o
8 2 32 98.962 117.482 17.098 37.862 o
8 2 33 10.619 -7.043 16.893 94.602 o
8 3 0 14.731 20.192 7.034 319.354 o
8 3 1 25.485 34.803 7.654 211.226 o
8 3 2 199.854 194.177 13.765 19.443 o
8 3 3 5.917 9.605 6.624 478.355 o
8 3 4 9.281 10.873 6.643 430.215 o
8 3 5 13.980 14.870 7.011 344.438 o
8 3 6 146.428 153.417 21.462 22.676 o
8 3 7 41.102 42.988 8.040 151.374 o
8 3 8 13.290 21.430 6.253 368.512 o
8 3 9 60.415 49.399 7.193 119.352 o
8 3 10 19.214 23.585 6.602 299.616 o
8 3 11 39.606 39.827 6.712 177.276 o
8 3 12 15.023 21.154 6.861 322.888 o
8 3 13 134.319 143.745 14.784 30.998 o
8 3 14 156.469 146.403 12.073 29.089 o
8 3 15 13.668 0.061 8.130 329.151 o
8 3 16 22.495 36.010 9.521 176.107 o
8 3 17 23.145 13.865 8.799 224.062 o
8 3 18 4.953 12.016 13.093 151.842 o
8 3 19 2.895 4.966 12.981 161.647 o
8 3 20 18.140 34.666 15.469 94.968 o
8 3 21 1.882 -5.176 13.890 145.579 o
8 3 22 13.337 26.159 15.900 96.340 o
8 3 23 5.566 13.511 14.044 132.139 o
8 3 24 75.698 91.431 19.854 40.416 o
8 3 25 106.110 67.401 19.800 36.748 o
8 4 0 9.377 22.647 9.047 249.544 o
8 4 1 2.800 -7.176 9.142 325.507 o
8 4 2 11.065 15.067 8.886 264.724 o
8 4 3 41.135 36.216 9.898 133.771 o
8 4 4 3.282 16.664 9.324 273.735 o
8 4 5 1.602 -2.091 8.376 393.374 o
8 4 6 3.007 5.151 10.780 229.416 o
8 4 7 12.948 20.575 11.758 162.643 o
8 4 8 36.122 27.173 11.531 126.720 o
8 4 9 23.151 28.148 11.650 142.485 o
8 4 10 0.737 -16.428 14.510 134.545 o
9 1 0 3.382 17.409 4.805 696.457 o
9 1 1 27.205 32.450 5.395 267.347 o
9 1 2 59.573 65.888 7.272 108.365 o
9 1 3 745.949 835.901 25.665 1.819 o
9 1 4 222.638 283.676 11.843 14.609 o
9 1 5 272.909 345.994 13.513 10.334 o
9 1 6 299.735 332.830 13.142 9.634 o
9 1 7 1470.610 1666.140 46.931 0.492 o
9 1 8 916.929 1017.890 31.173 1.236 o
9 1 9 318.939 322.664 14.375 9.065 o
9 1 10 324.448 328.323 13.985 8.839 o
9 1 11 203.747 248.687 11.832 17.257 o
9 1 12 83.637 96.316 7.541 69.940 o
9 1 13 0.692 0.083 4.914 1131.740 o
9 1 14 57.635 64.368 6.566 116.474 o
9 1 15 54.596 63.748 6.727 120.539 o
9 1 16 183.865 187.629 11.391 22.437 o
9 1 17 99.143 128.055 9.302 49.877 o
9 1 18 243.355 236.326 12.963 14.590 o
9 1 19 675.073 750.304 27.814 2.170 o
9 1 20 230.127 210.540 15.011 15.879 o
9 1 21 75.259 57.779 9.011 86.425 o
9 1 22 2.328 -0.480 7.012 543.491 o
9 1 23 17.343 23.635 8.541 235.669 o
9 1 24 31.615 34.669 9.246 162.310 o
9 1 25 2.456 17.224 14.821 120.689 o
9 1 26 397.466 431.908 38.352 4.723 o
9 1 27 74.216 88.137 17.952 45.859 o
9 1 28 155.285 199.281 50.546 8.033 o
9 1 29 10.348 -1.142 9.943 249.874 o
9 1 30 32.853 28.340 9.588 160.469 o
9 1 31 63.964 71.362 15.498 60.151 o
9 1 32 52.956 64.423 11.848 86.967 o
9 1 33 25.275 38.978 10.307 152.555 o
9 1 34 93.437 93.442 15.734 45.073 o
9 1 35 65.019 90.133 16.149 53.748 o
9 2 0 72.606 37.814 7.018 111.252 o
9 2 1 67.564 62.904 8.215 95.395 o
9 2 2 37.241 25.599 6.858 204.115 o
9 2 3 279.366 334.593 18.962 9.685 o
9 2 4 240.180 241.912 15.382 14.117 o
9 2 5 32.546 24.291 6.672 228.295 o
9 2 6 20.986 27.987 6.748 271.294 o
9 2 7 109.175 104.410 9.973 49.463 o
9 2 8 59.439 66.508 8.544 100.459 o
9 2 9 195.233 217.885 14.969 18.347 o
9 2 10 1035.610 1217.450 51.759 0.898 o
9 2 11 534.625 599.500 31.091 3.166 o
9 2 12 152.265 125.716 13.016 30.992 o
9 2 13 148.720 192.105 15.044 24.742 o
9 2 14 201.896 242.489 17.877 15.898 o
9 2 15 195.093 252.113 17.516 16.152 o
9 2 16 170.644 175.683 15.232 22.899 o
9 2 17 36.231 39.765 9.499 144.304 o
9 2 18 6.766 33.616 16.663 90.349 o
9 2 19 165.486 202.324 16.794 21.139 o
9 2 20 408.059 507.975 32.333 4.532 o
9 2 21 98.799 110.664 13.410 45.660 o
9 2 22 871.872 1004.780 70.980 1.112 o
9 2 23 25.708 42.488 11.774 127.118 o
9 2 24 210.424 263.873 29.378 11.447 o
9 2 25 6.487 25.899 16.892 90.251 o
9 2 26 185.403 205.098 26.779 14.768 o
9 2 27 44.910 38.284 21.328 48.896 o
9 2 28 18.541 23.708 15.088 102.424 o
9 2 29 42.604 50.255 18.495 59.417 o
9 2 30 1.791 5.260 18.721 79.803 o
9 3 0 17.765 13.391 7.432 302.125 o
9 3 1 3.114 15.414 7.371 405.901 o
9 3 2 95.395 88.546 10.515 57.796 o
9 3 3 121.977 193.862 14.833 28.739 o
9 3 4 203.102 214.165 20.941 15.721 o
9 3 5 699.832 768.654 35.780 1.979 o
9 3 6 102.764 148.547 13.119 39.438 o
9 3 7 563.932 680.652 28.857 2.804 o
9 3 8 40.995 50.188 8.280 141.535 o
9 3 9 49.852 92.832 10.669 84.791 o
9 3 10 15.373 25.105 6.860 307.640 o
9 3 11 43.526 45.496 7.273 153.080 o
9 3 12 63.970 78.278 8.568 89.505 o
9 3 13 0.462 13.573 6.262 574.742 o
9 3 14 38.482 45.581 10.017 129.199 o
9 3 15 80.851 97.402 13.867 53.344 o
9 3 16 28.300 25.831 22.777 48.133 o
9 3 17 116.791 136.673 30.756 18.536 o
9 3 18 35.908 22.279 14.444 96.769 o
9 3 19 66.843 105.237 19.221 42.343 o
9 3 20 12.660 18.377 16.604 91.831 o
9 3 21 12.837 12.212 14.764 115.172 o
9 3 22 161.176 179.237 38.645 11.592 o
9 3 23 21.649 17.116 21.618 55.030 o
10 0 0 95.478 100.064 11.220 53.484 o
10 0 1 35.985 42.922 8.983 149.019 o
10 0 2 244.666 237.243 17.872 13.443 o
10 0 3 571.170 575.429 30.659 3.026 o
10 0 4 134.922 144.461 16.875 28.761 o
10 0 5 1337.100 1186.880 92.795 0.591 o
10 0 6 313.570 519.617 28.120 5.903 o
10 0 7 1662.270 1456.700 112.436 0.393 o
10 0 8 3852.980 3532.560 177.227 0.081 o
10 0 9 1918.360 2154.460 68.579 0.292 o
10 0 10 210.251 197.556 15.742 17.666 o
10 0 11 52.626 39.469 6.417 149.173 o
10 0 12 290.777 293.735 24.141 9.268 o
10 0 13 412.399 415.175 21.090 5.593 o
10 0 14 24.222 45.831 8.059 188.937 o
10 0 15 314.484 253.193 15.939 10.250 o
10 0 16 306.857 381.852 29.110 7.162 o
10 0 17 977.843 847.760 53.138 1.177 o
10 0 18 1528.100 1590.910 61.560 0.471 o
10 0 19 414.039 372.642 30.598 5.353 o
10 0 20 397.399 414.715 22.252 5.768 o
10 0 21 256.075 301.420 30.186 9.182 o
10 0 22 166.785 216.025 16.687 20.365 o
10 0 23 109.651 135.536 15.930 35.347 o
10 0 24 598.761 582.790 61.955 2.208 o
10 0 25 627.132 546.099 56.283 2.294 o
10 0 26 247.986 245.225 26.207 11.172 o
10 0 32 147.273 115.400 29.240 18.386 o
10 1 0 149.865 144.962 12.402 30.156 o
10 1 1 242.692 271.604 26.329 10.850 o
10 1 2 774.121 759.035 37.695 1.761 o
10 1 3 512.053 591.083 23.905 3.504 o
10 1 4 97.262 118.414 8.428 54.225 o
10 1 5 380.848 379.806 22.783 6.302 o
10 1 6 998.465 1011.980 38.857 1.096 o
10 1 7 688.373 681.457 36.863 2.150 o
10 1 8 40.179 76.839 7.699 125.584 o
10 1 9 403.848 347.191 19.724 6.365 o
10 1 10 119.584 123.510 11.252 40.820 o
10 1 11 107.613 122.420 10.934 45.186 o
10 1 12 146.887 119.490 9.208 36.175 o
10 1 13 203.190 189.257 14.172 19.210 o
10 1 14 737.461 646.373 23.590 2.168 o
10 1 15 25.146 47.552 6.661 212.139 o
10 1 16 217.666 154.879 12.550 20.063 o
10 1 17 89.232 78.958 7.681 71.700 o
10 1 18 85.424 106.764 9.447 60.869 o
10 1 19 152.179 118.563 9.818 34.503 o
10 1 20 48.842 82.474 9.665 96.326 o
10 1 21 694.761 690.318 29.599 2.191 o
10 1 22 1153.870 1077.830 41.613 0.879 o
10 1 23 94.407 115.119 11.179 50.916 o
10 1 24 0.196 2.664 7.724 460.906 o
10 1 25 29.965 41.383 9.970 147.275 o
10 1 26 241.699 230.197 22.556 12.641 o
10 1 27 150.420 126.436 17.855 26.865 o
10 1 28 16.216 39.934 12.464 131.033 o
10 1 29 14.484 26.380 11.950 151.567 o
10 1 30 15.690 6.968 8.910 261.259 o
10 1 31 51.175 45.445 17.937 59.836 o
10 1 32 160.970 127.321 17.722 25.474 o
10 1 33 168.403 147.181 32.360 14.565 o
10 2 0 30.938 32.456 8.028 189.499 o
10 2 1 90.948 99.497 11.159 55.738 o
10 2 2 21.073 14.704 6.588 316.919 o
10 2 3 36.751 29.669 6.824 199.579 o
10 2 4 175.220 160.771 12.761 24.638 o
10 2 5 5.649 8.452 6.300 527.052 o
10 2 6 217.248 177.442 15.118 18.140 o
10 2 7 433.339 382.902 20.918 5.529 o
10 2 8 59.932 61.676 10.964 87.725 o
10 2 9 11.767 5.568 8.927 280.555 o
10 2 10 10.200 2.989 8.146 340.803 o
10 2 11 15.355 17.329 8.207 269.703 o
10 2 12 148.747 106.149 12.882 33.803 o
10 2 13 295.629 243.562 22.389 10.199 o
10 2 14 27.511 12.489 8.398 223.376 o
10 2 15 32.489 31.169 8.802 172.162 o
10 2 16 3.395 3.443 8.107 390.467 o
10 2 17 43.316 48.151 11.561 105.535 o
10 2 18 72.923 78.442 12.019 67.682 o
10 2 19 22.142 28.057 13.768 113.219 o
10 2 20 121.191 90.670 20.127 31.460 o
10 2 21 147.336 144.120 17.029 26.772 o
10 2 22 196.826 157.448 17.578 19.859 o
10 2 23 104.728 79.094 22.393 31.535 o
10 2 24 36.109 50.946 12.489 102.854 o
10 2 25 16.736 21.508 43.949 14.402 o
10 2 26 1.242 -0.296 13.676 150.798 o
10 2 27 18.034 18.070 31.313 27.785 o
10 3 0 0.251 8.830 7.333 471.995 o
10 3 1 7.556 11.926 7.115 402.549 o
10 3 2 19.892 4.081 6.846 350.244 o
10 3 3 8.114 -1.207 6.820 489.684 o
10 3 4 32.546 17.930 7.389 222.795 o
10 3 5 47.008 73.050 9.847 102.041 o
10 3 6 33.636 18.785 7.878 205.447 o
10 3 7 25.158 7.677 6.592 312.922 o
10 3 8 29.952 42.097 7.949 180.316 o
10 3 9 16.409 15.775 6.982 325.559 o
10 3 10 1.858 5.276 6.175 640.880 o
10 3 11 4.238 9.405 6.378 531.544 o
10 3 12 64.833 38.252 8.027 114.913 o
10 3 13 11.582 12.226 6.600 403.312 o
10 3 14 0.255 4.785 14.050 141.554 o
10 3 15 3.883 -7.103 13.098 160.843 o
10 3 16 3.018 -4.815 13.316 156.820 o
10 3 17 0.130 14.826 12.777 163.569 o
10 3 18 33.471 26.246 14.638 95.276 o
10 3 19 9.141 19.868 13.685 131.362 o
10 3 20 21.660 5.438 18.676 73.424 o
11 1 0 6.404 13.433 5.985 515.069 o
11 1 1 135.531 136.624 9.838 36.318 o
11 1 2 177.263 183.735 10.734 23.795 o
11 1 3 151.871 123.764 8.880 34.704 o
11 1 4 17.208 33.121 5.929 309.129 o
11 1 5 12.994 27.639 6.400 337.595 o
11 1 6 763.630 812.918 28.469 1.784 o
11 1 7 42.056 55.251 7.959 138.452 o
11 1 8 288.322 312.944 17.014 9.988 o
11 1 9 111.052 118.229 9.334 47.139 o
11 1 10 365.290 405.570 16.513 6.719 o
11 1 11 248.328 295.565 14.151 12.433 o
11 1 12 25.764 34.356 6.225 247.426 o
11 1 13 3.715 2.784 5.671 723.893 o
11 1 14 8.053 4.715 5.576 615.635 o
11 1 15 12.652 10.934 5.801 463.677 o
11 1 16 228.613 249.671 12.219 15.269 o
11 1 17 50.916 50.309 6.969 136.407 o
11 1 18 104.006 144.140 10.785 43.044 o
11 1 19 67.805 70.790 8.439 90.036 o
11 1 20 1.562 10.531 7.077 476.116 o
11 1 21 3.456 3.740 7.437 453.352 o
11 1 22 128.898 135.387 11.755 36.187 o
11 1 23 0.038 11.218 7.451 448.470 o
11 1 24 4.713 1.645 7.353 460.124 o
11 1 25 75.336 66.921 10.345 76.668 o
11 1 26 134.335 149.421 13.727 31.497 o
11 1 27 1.965 -0.980 9.414 311.652 o
11 1 28 132.041 162.071 16.592 28.102 o
11 1 29 11.747 14.579 12.251 158.651 o
11 1 30 142.880 222.156 27.749 16.247 o
11 2 0 355.299 368.261 32.182 6.126 o
11 2 1 356.469 350.110 30.342 6.415 o
11 2 2 13.648 28.433 12.724 137.338 o
11 2 3 376.062 434.065 23.637 5.876 o
11 2 4 57.343 74.053 9.563 92.663 o
11 2 5 128.274 136.238 15.524 32.041 o
11 2 6 102.436 130.109 15.030 38.989 o
11 2 7 240.614 272.835 22.007 11.852 o
11 2 8 20.079 21.312 17.228 81.855 o
11 2 9 197.932 207.112 19.120 17.012 o
11 2 10 4.291 10.500 9.199 289.219 o
11 2 11 372.751 387.309 26.654 6.117 o
11 2 12 59.826 46.295 14.855 70.984 o
11 2 13 85.527 96.609 13.993 51.375 o
11 2 14 93.284 98.541 12.587 51.534 o
11 2 15 123.801 141.228 15.363 32.602 o
11 2 16 13.721 21.784 8.769 245.048 o
11 2 17 2.594 -1.398 8.343 388.964 o
11 2 18 6.104 -2.953 8.113 382.320 o
11 2 19 17.762 22.403 9.829 197.577 o
11 2 20 122.996 133.142 15.062 33.929 o
11 2 21 427.061 503.589 31.833 4.382 o
11 2 22 18.881 32.222 11.465 149.123 o
11 2 23 15.374 9.480 11.343 178.048 o
11 2 24 11.900 -3.521 14.932 118.366 o
11 3 0 4.802 6.272 7.123 458.454 o
11 3 1 42.456 43.394 8.568 141.707 o
11 3 2 4.072 14.018 8.621 314.453 o
11 3 3 10.211 11.440 7.873 330.880 o
11 3 4 55.907 69.972 9.934 93.838 o
11 3 5 33.222 40.286 12.803 107.721 o
11 3 6 2.497 4.950 6.499 578.437 o
11 3 7 7.132 9.131 6.978 432.215 o
11 3 8 81.714 76.795 9.283 72.734 o
11 3 9 9.991 -3.025 6.285 527.230 o
11 3 10 0.045 1.373 6.870 590.619 o
11 3 11 3.979 -1.319 7.874 421.444 o
11 3 12 2.504 -0.179 7.887 433.486 o
11 3 13 41.895 43.536 27.502 32.250 o
11 3 14 38.803 43.016 13.888 91.699 o
11 3 15 51.430 51.224 15.194 72.287 o
11 3 16 77.965 77.869 25.496 30.171 o
12 0 0 794.294 706.891 50.094 1.664 o
12 0 1 512.080 414.313 33.539 3.942 o
12 0 2 59.863 122.318 24.183 31.859 o
12 0 3 205.371 207.374 27.972 13.263 o
12 0 4 135.515 134.828 16.986 29.327 o
12 0 5 165.629 159.935 15.781 24.157 o
12 0 6 204.373 205.331 19.631 16.416 o
12 0 7 462.730 389.668 30.614 4.660 o
12 0 8 1207.810 1010.370 50.007 0.840 o
12 0 9 588.307 540.640 29.151 3.057 o
12 0 10 156.285 182.148 15.569 24.068 o
12 0 11 1020.690 887.153 51.054 1.102 o
12 0 12 413.693 510.638 44.555 3.887 o
12 0 13 284.026 265.796 19.202 10.726 o
12 0 14 25.595 66.215 9.544 139.158 o
12 0 15 150.528 124.171 12.025 32.360 o
12 0 16 109.470 84.345 10.567 52.294 o
12 0 17 63.994 59.355 9.681 92.658 o
12 0 18 212.174 201.212 20.244 15.801 o
12 0 19 39.958 59.949 18.329 59.433 o
12 0 20 272.058 256.360 21.134 11.058 o
12 0 21 78.764 82.397 12.194 62.791 o
12 0 22 250.612 243.104 22.473 11.961 o
12 0 23 419.180 363.930 27.660 5.520 o
12 0 24 90.060 116.407 22.576 30.680 o
12 0 25 173.476 140.174 49.788 8.382 o
12 0 26 175.078 175.582 23.783 17.732 o
12 0 27 125.777 98.774 25.362 24.043 o
12 1 0 0.170 20.477 8.139 349.722 o
12 1 1 252.789 196.467 15.586 14.691 o
12 1 2 89.889 117.188 10.988 52.738 o
12 1 3 43.807 41.282 7.886 149.491 o
12 1 4 120.647 111.723 10.505 43.297 o
12 1 5 131.037 147.715 22.714 23.551 o
12 1 6 652.894 666.400 62.573 1.913 o
12 1 7 803.859 784.222 64.011 1.432 o
12 1 8 206.574 238.377 22.509 14.247 o
12 1 9 60.555 44.455 7.039 124.149 o
12 1 10 50.134 55.400 7.214 131.040 o
12 1 11 285.782 245.917 14.943 11.712 o
12 1 12 161.004 168.469 10.931 27.200 o
12 1 13 42.962 59.398 8.697 125.883 o
12 1 14 117.355 116.212 9.312 45.274 o
12 1 15 26.722 45.066 7.170 200.465 o
12 1 16 172.115 156.451 10.072 26.843 o
12 1 17 18.559 35.638 6.605 268.823 o
12 1 18 337.349 294.413 23.041 8.107 o
12 1 19 284.926 294.552 17.833 10.343 o
12 1 20 77.369 94.516 10.749 65.020 o
12 1 21 138.746 91.578 13.163 37.458 o
12 1 22 27.082 53.480 9.218 152.708 o
12 1 23 48.873 37.875 8.773 132.929 o
12 1 24 39.698 36.996 8.684 151.735 o
12 1 25 35.570 45.169 10.466 128.435 o
12 1 26 140.183 103.106 15.316 33.184 o
12 2 0 7.124 24.060 12.904 145.191 o
12 2 1 18.716 1.801 9.638 231.019 o
12 2 2 6.481 13.901 12.458 162.501 o
12 2 3 139.771 98.576 16.384 32.422 o
12 2 4 185.974 151.388 20.334 19.696 o
12 2 5 71.329 78.681 13.028 64.605 o
12 2 6 9.745 14.647 9.014 265.509 o
12 2 7 58.634 51.382 12.342 84.538 o
12 2 8 106.507 98.279 14.065 43.920 o
12 2 9 32.611 6.480 9.512 187.697 o
12 2 10 6.472 5.836 7.894 375.076 o
12 2 11 9.463 17.545 8.551 281.641 o
12 2 12 43.278 19.759 9.194 154.408 o
12 2 13 49.489 37.597 9.914 120.230 o
12 2 14 8.685 18.352 8.848 269.590 o
12 2 15 18.551 24.290 15.447 98.339 o
12 2 16 79.731 71.248 12.423 64.398 o
12 2 17 3.105 23.927 9.541 250.451 o
12 2 18 44.552 29.659 9.866 133.952 o
12 2 19 14.274 16.585 11.889 160.900 o
12 2 20 81.778 23.652 25.852 32.284 o
12 2 21 75.498 55.850 28.750 26.544 o
12 3 3 6.931 11.812 11.544 186.934 o
12 3 4 32.108 50.011 14.798 86.651 o
12 3 5 1.150 23.668 13.416 142.864 o
12 3 6 15.668 7.591 10.586 200.269 o
12 3 7 51.289 31.558 20.192 52.427 o
13 1 0 0.194 3.848 10.965 231.127 o
13 1 1 94.721 88.875 12.724 52.542 o
13 1 2 7.167 17.039 8.507 296.475 o
13 1 3 4.608 14.120 6.478 481.749 o
13 1 4 0.659 8.447 6.779 539.121 o
13 1 5 95.883 110.661 16.780 39.956 o
13 1 6 0.262 7.001 6.809 551.684 o
13 1 7 99.922 86.286 9.944 57.515 o
13 1 8 232.434 215.016 15.130 15.531 o
13 1 9 249.504 258.482 15.465 13.107 o
13 1 10 0.122 6.225 6.648 584.712 o
13 1 11 15.244 22.923 7.020 307.933 o
13 1 12 7.562 7.069 6.389 499.031 o
13 1 13 71.473 61.330 7.813 94.137 o
13 1 14 82.519 92.100 8.920 68.259 o
13 1 15 2.994 5.514 5.680 705.209 o
13 1 16 6.516 7.903 5.928 565.058 o
13 1 17 143.082 145.785 10.056 33.295 o
13 1 18 5.844 7.648 6.939 458.047 o
13 1 19 20.251 27.837 8.271 225.635 o
13 1 20 102.382 105.953 11.366 49.234 o
13 1 21 33.989 58.117 13.149 95.688 o
13 1 22 6.798 9.762 22.599 53.920 o
13 2 0 8.649 18.125 11.362 182.282 o
13 2 1 107.379 84.459 15.840 42.185 o
13 2 2 54.844 42.240 12.830 87.737 o
13 2 3 36.378 29.782 11.889 120.265 o
13 2 4 118.686 119.049 18.559 31.634 o
13 2 5 38.725 41.712 12.671 103.048 o
13 2 6 4.210 5.568 14.308 132.589 o
13 2 7 16.887 39.992 13.702 113.369 o
13 2 8 202.804 191.528 26.748 14.219 o
13 2 9 63.910 70.924 12.541 73.106 o
13 2 10 24.493 48.766 10.714 139.183 o
13 2 11 53.958 88.847 12.275 75.006 o
13 2 12 27.413 47.050 10.627 137.198 o
13 2 13 70.742 86.598 30.131 23.901 o
13 2 14 11.492 12.124 20.905 61.366 o
13 2 15 41.954 30.666 22.599 45.860 o
14 0 0 325.921 264.497 37.976 6.875 o
14 0 1 79.848 105.460 25.942 27.735 o
14 0 2 8.808 27.096 12.392 150.805 o
14 0 3 23.406 40.609 21.195 53.986 o
14 0 4 187.050 150.710 20.871 19.335 o
14 0 5 541.886 495.248 29.247 3.516 o
14 0 6 304.334 292.755 28.475 8.294 o
14 0 7 150.340 150.915 22.615 21.538 o
14 0 8 9.432 41.806 18.850 70.198 o
14 0 9 188.789 154.577 15.366 21.949 o
14 0 10 286.953 318.814 22.133 9.283 o
14 0 11 41.963 55.263 11.314 105.411 o
14 0 12 62.779 46.135 10.513 95.037 o
14 0 13 43.712 64.194 11.255 99.514 o
14 0 14 59.343 63.328 14.974 66.315 o
14 0 15 90.944 108.769 16.470 42.056 o
14 0 16 47.273 64.311 18.510 55.545 o
14 0 17 292.061 259.238 47.114 6.255 o
14 1 0 0.430 2.196 9.512 307.473 o
14 1 1 65.424 61.159 13.984 68.330 o
14 1 2 163.844 135.727 15.753 26.043 o
14 1 3 60.636 65.841 12.203 78.623 o
14 1 4 44.359 30.994 14.166 89.778 o
14 1 5 47.974 63.073 10.702 100.018 o
14 1 6 17.450 31.414 10.850 164.126 o
14 1 7 28.994 19.351 7.784 222.977 o
14 1 8 21.439 26.389 7.795 238.307 o
14 1 9 288.041 308.914 21.538 9.485 o
14 1 10 388.925 390.333 25.416 5.913 o
14 1 11 81.154 97.015 16.598 46.116 o
14 1 12 22.657 14.687 7.601 265.437 o
14 1 13 23.402 28.868 7.217 242.467 o
14 1 14 104.142 76.336 17.745 40.216 o
14 1 15 71.638 125.251 29.508 23.128 o
14 1 16 5.024 23.312 21.573 57.999 o
15 1 0 0.493 3.209 13.060 164.094 o
15 1 1 10.239 19.389 15.021 110.957 o
15 1 2 26.898 46.133 18.587 65.023 o
15 1 3 9.825 9.940 12.882 151.311 o
;
_iucr_refine_instructions_details 
;
TITL anb_a.res in Pna2(1)
CELL 0.71073 12.2108 3.8608 35.1524 90 90 90
ZERR 8 0.0005 0.0002 0.0015 0 0 0
LATT -1
SYMM -X,-Y,0.5+Z
SYMM 0.5+X,0.5-Y,+Z
SYMM 0.5-X,0.5+Y,0.5+Z
SFAC C H N O Cl
UNIT 56 48 16 8 16

L.S. 10
PLAN  20
FMAP 2
BOND $H
ACTA 
LIST 4
MERG 2
WGHT 0.149269 2.026347
FVAR 0.473656
REM <olex2.extras>
REM <HklSrc "%.\\ANB.hkl">
REM </olex2.extras>

Cl2   5     0.12827  0.18306  0.30412  11.00000  0.05529  0.08241  0.03456 =
 -0.00170 -0.01245  0.00254 
Cl1   5     0.36002 -0.15906  0.28474  11.00000  0.06603  0.07580  0.03156 =
 -0.01011  0.01049  0.00696 
Cl3   5    -0.09228  0.17699  0.71496  11.00000  0.06160  0.07649  0.03314 =
 -0.00777  0.00957 -0.00074 
Cl4   5     0.13894 -0.15554  0.69628  11.00000  0.05208  0.07716  0.04142 =
 0.00437 -0.01214  0.00834 
O2    4     0.12322 -0.33538  0.55004  11.00000  0.03355  0.04952  0.03759 =
 -0.00268  0.00118  0.01453 
O1    4     0.14636  0.33846  0.45078  11.00000  0.03011  0.04810  0.03695 =
 -0.00105  0.00754  0.00721 
N1    3     0.29534  0.08311  0.47423  11.00000  0.02976  0.04205  0.03254 =
 -0.00472  0.00401  0.00477 
AFIX 43
H1    2     0.35123 -0.04655  0.46988  11.00000 -1.20000 
AFIX 0
N2    3     0.27324  0.19276  0.51161  11.00000  0.03193  0.04245  0.02522 =
 -0.00744 -0.00007 -0.00551 
AFIX 7
H2a   2     0.21602  0.35082  0.51033  11.00000 -1.20000 
H2b   2     0.23840 -0.00607  0.52533  11.00000 -1.20000 
AFIX 0
N4    3    -0.00476 -0.19005  0.48811  11.00000  0.02469  0.05943  0.02913 =
 -0.00978  0.00668  0.00222 
AFIX 7
H4a   2     0.04667 -0.35933  0.49064  11.00000 -1.20000 
H4b   2     0.04511 -0.03748  0.47522  11.00000 -1.20000 
AFIX 0
N3    3    -0.02643 -0.07627  0.52618  11.00000  0.02857  0.04741  0.02825 =
 -0.01048  0.00037  0.00580 
AFIX 43
H3a   2    -0.08180  0.05551  0.53055  11.00000 -1.20000 
AFIX 0
C14   1     0.03750 -0.17108  0.55464  11.00000  0.02994  0.03516  0.01996 =
 -0.00572  0.00628  0.00316 
C8    1     0.00045 -0.07230  0.59426  11.00000  0.03231  0.03331  0.02775 =
 -0.00143  0.00705  0.00130 
C7    1     0.23066  0.17771  0.44538  11.00000  0.02184  0.03194  0.03889 =
 -0.00030 -0.00010 -0.00306 
C13   1     0.07336 -0.14084  0.62312  11.00000  0.02660  0.02654  0.03980 =
 0.00057  0.00193  0.00048 
AFIX 43
H13   2     0.14116 -0.23907  0.61774  11.00000 -1.20000 
AFIX 0
C10   1    -0.12853  0.13793  0.63959  11.00000  0.03187  0.04201  0.04001 =
 -0.00059  0.01020  0.00514 
AFIX 43
H10   2    -0.19743  0.22802  0.64498  11.00000 -1.20000 
AFIX 0
C6    1     0.19498  0.15339  0.37624  11.00000  0.03346  0.04269  0.03319 =
 -0.00139  0.00090  0.00380 
AFIX 43
H6    2     0.12666  0.24735  0.38175  11.00000 -1.20000 
AFIX 0
C1    1     0.26809  0.08585  0.40621  11.00000  0.02584  0.02736  0.02888 =
 -0.00074  0.00153 -0.00416 
C9    1    -0.10151  0.06513  0.60277  11.00000  0.02459  0.04757  0.03621 =
 0.00367 -0.00381  0.00280 
AFIX 43
H9    2    -0.15154  0.10778  0.58338  11.00000 -1.20000 
AFIX 0
C5    1     0.22126  0.08537  0.33952  11.00000  0.03967  0.04106  0.02757 =
 -0.00148 -0.00309  0.00191 
C12   1     0.04441 -0.06088  0.66088  11.00000  0.03764  0.03031  0.04127 =
 0.00494 -0.00497 -0.00710 
C11   1    -0.05583  0.08075  0.66899  11.00000  0.03672  0.04421  0.02539 =
 -0.00666  0.00679 -0.00278 
C4    1     0.32393 -0.05816  0.33125  11.00000  0.04634  0.03690  0.03408 =
 -0.00358  0.00753 -0.00536 
C2    1     0.36962 -0.05660  0.39732  11.00000  0.03056  0.04597  0.04088 =
 -0.00960  0.00038  0.00528 
AFIX 43
H2    2     0.42015 -0.10149  0.41649  11.00000 -1.20000 
AFIX 0
C3    1     0.39519 -0.13146  0.35971  11.00000  0.02753  0.06958  0.04564 =
 -0.00269  0.00452  0.00340 
AFIX 43
H3    2     0.46219 -0.23337  0.35396  11.00000 -1.20000 
AFIX 0
HKLF 4

END
Q1 1 -0.125 0.366667 0.716667 11 0.05 1.55
Q2 1 0.325 -0.366667 0.283333 11 0.05 1.33
Q3 1 0.1 0.366667 0.3 11 0.05 1.24
Q4 1 0.1 -0.333333 0.691667 11 0.05 1.08
Q5 1 0.1 0.133333 0.45 11 0.05 0.73
Q6 1 0.25 0.4 0.475 11 0.05 0.64
Q7 1 0.1 -0.166667 0.55 11 0.05 0.64
Q8 1 -0.05 -0.4 0.525 11 0.05 0.62
Q9 1 0.275 -0.433333 0.333333 11 0.05 0.58
Q10 1 0.25 0.4 0.408333 11 0.05 0.52
Q11 1 0 -0.466667 0.658333 11 0.05 0.52
Q12 1 0.25 0.366667 0.508333 11 0.05 0.51
Q13 1 -0.05 -0.4 0.591667 11 0.05 0.5
Q14 1 0.175 0.4 0.341667 11 0.05 0.48
Q15 1 -0.1 0.433333 0.666667 11 0.05 0.44
Q16 1 -0.15 0.433333 0.6 11 0.05 0.44
Q17 1 0.425 -0.4 0.358333 11 0.05 0.42
Q18 1 0.125 -0.366667 0.625 11 0.05 0.42
Q19 1 -0.1 0.3 0.641667 11 0.05 0.41
Q20 1 -0.05 -0.333333 0.483333 11 0.05 0.39

  REM The information below was added by Olex2.
  REM
  REM R1 = 0.0804 for 2867 Fo > 4sig(Fo) and 0.0914 for all 3434 data
  REM 219 parameters refined using 1 restraints
  REM Highest difference peak 1.5538, deepest hole -0.4563
  REM Mean Shift 0.0001, Max Shift 0.0004.

  REM +++ Tabular Listing of Refinement Information +++
  REM R1_all = 0.0914
  REM R1_gt = 0.0804
  REM wR_ref = 0.2252
  REM GOOF = 1.0396
  REM Shift_max = 0.0004
  REM Shift_mean = 0.0001
  REM Reflections_all = 3434
  REM Reflections_gt = 2867
  REM Parameters = 219
  REM Hole = -0.4563
  REM Peak = 1.5538
  REM Flack = 0.5(2)

  
;
_olex2_submission_special_instructions 'No special instructions were received'
_oxdiff_exptl_absorpt_empirical_details 
;
Empirical correction (ABSPACK) includes:
- Absorption correction using spherical harmonics
- Frame scaling
;
_oxdiff_exptl_absorpt_empirical_full_max 2.306
_oxdiff_exptl_absorpt_empirical_full_min 0.443
# start Validation Reply Form
_vrf_PLAT029_34dichlorobenzhydrazide 
;
PROBLEM: _diffrn_measured_fraction_theta_full value Low .      0.956 Why?  
RESPONSE: Poor diffraction by the crystals
;
# end Validation Reply Form
