####################################################################### 
# 
# This file contains crystal structure data downloaded from the 
# Cambridge Structural Database (CSD) hosted by the Cambridge 
# Crystallographic Data Centre (CCDC).
# 
# Full information about CCDC data access policies and citation 
# guidelines are available at http://www.ccdc.cam.ac.uk/access/V1 
# 
# Audit and citation data items may have been added by the CCDC. 
# Please retain this information to preserve the provenance of 
# this file and to allow appropriate attribution of the data. 
# 
#######################################################################

data_new
_audit_block_doi                 10.5517/ccdc.csd.cc20m1zp
_database_code_depnum_ccdc_archive 'CCDC 1865362'
loop_
_citation_id
_citation_doi
_citation_year
1 10.1002/anie.201810514 2018
loop_
_audit_author_name
_audit_author_address
'Luca Catalano'
;New York University Abu Dhabi
United Arab Emirates
;
_audit_update_record             
;
2018-09-02 deposited with the CCDC.	2025-10-31 downloaded from the CCDC.
;
_audit_creation_date             2018-07-07
_audit_creation_method           
;
Olex2 1.2
(compiled 2018.05.29 svn.r3508 for OlexSys, GUI svn.r5506)
;
_shelxl_version_number           2013-2
_chemical_name_common            DCA
_chemical_name_systematic        9,10-anthracenedicarbonitrile
_chemical_formula_moiety         'C8 H4 N'
_chemical_formula_sum            'C8 H4 N'
_chemical_formula_weight         114.12
_chemical_melting_point          613
loop_
_atom_type_symbol
_atom_type_description
_atom_type_scat_dispersion_real
_atom_type_scat_dispersion_imag
_atom_type_scat_source
C C 0.0033 0.0016 'International Tables Vol C Tables 4.2.6.8 and 6.1.1.4'
H H 0.0000 0.0000 'International Tables Vol C Tables 4.2.6.8 and 6.1.1.4'
N N 0.0061 0.0033 'International Tables Vol C Tables 4.2.6.8 and 6.1.1.4'

_shelx_space_group_comment       
;
The symmetry employed for this shelxl refinement is uniquely defined
by the following loop, which should always be used as a source of
symmetry information in preference to the above space-group names.
They are only intended as comments.
;
_space_group_crystal_system      triclinic
_space_group_IT_number           2
_space_group_name_H-M_alt        'P -1'
_space_group_name_Hall           '-P 1'
loop_
_space_group_symop_operation_xyz
'x, y, z'
'-x, -y, -z'

_cell_length_a                   3.887(9)
_cell_length_b                   8.524(18)
_cell_length_c                   9.21(2)
_cell_angle_alpha                71.60(6)
_cell_angle_beta                 78.59(12)
_cell_angle_gamma                90.84(6)
_cell_volume                     282.7(11)
_cell_formula_units_Z            2
_cell_measurement_reflns_used    2734
_cell_measurement_temperature    290
_cell_measurement_theta_max      26.91
_cell_measurement_theta_min      2.40
_shelx_estimated_absorpt_T_max   0.980
_shelx_estimated_absorpt_T_min   0.938
_exptl_absorpt_coefficient_mu    0.081
_exptl_absorpt_correction_T_max  27.3
_exptl_absorpt_correction_T_min  2.4
_exptl_absorpt_correction_type   multi-scan
_exptl_absorpt_process_details   sadabs
_exptl_crystal_colour            yellow
_exptl_crystal_density_diffrn    1.340
_exptl_crystal_density_meas      ?
_exptl_crystal_density_method    ?
_exptl_crystal_description       needle
_exptl_crystal_F_000             118
_exptl_crystal_size_max          0.8
_exptl_crystal_size_mid          0.3
_exptl_crystal_size_min          0.25
_exptl_special_details           
;
 ?
;
_exptl_transmission_factor_max   ?
_exptl_transmission_factor_min   ?
_diffrn_reflns_av_R_equivalents  0.0405
_diffrn_reflns_av_unetI/netI     0.0272
_diffrn_reflns_Laue_measured_fraction_full 0.999
_diffrn_reflns_Laue_measured_fraction_max 0.978
_diffrn_reflns_limit_h_max       4
_diffrn_reflns_limit_h_min       -4
_diffrn_reflns_limit_k_max       10
_diffrn_reflns_limit_k_min       -10
_diffrn_reflns_limit_l_max       11
_diffrn_reflns_limit_l_min       -11
_diffrn_reflns_number            4855
_diffrn_reflns_point_group_measured_fraction_full 0.999
_diffrn_reflns_point_group_measured_fraction_max 0.978
_diffrn_reflns_theta_full        25.242
_diffrn_reflns_theta_max         25.991
_diffrn_reflns_theta_min         2.386
_diffrn_ambient_temperature      290
_diffrn_detector_area_resol_mean ?
_diffrn_measured_fraction_theta_full 0.999
_diffrn_measured_fraction_theta_max 0.978
_diffrn_measurement_device_type  'Bruker APEX-II CCD'
_diffrn_measurement_method       '\f and \w scans'
_diffrn_radiation_type           MoK\a
_diffrn_radiation_wavelength     0.71073
_diffrn_source                   'fine-focus sealed tube'
_reflns_Friedel_coverage         0.000
_reflns_Friedel_fraction_full    .
_reflns_Friedel_fraction_max     .
_reflns_number_gt                883
_reflns_number_total             1092
_reflns_special_details          
;
 Reflections were merged by SHELXL according to the crystal
 class for the calculation of statistics and refinement.
 
 _reflns_Friedel_fraction is defined as the number of unique
 Friedel pairs measured divided by the number that would be
 possible theoretically, ignoring centric projections and
 systematic absences.
;
_reflns_threshold_expression     'I > 2\s(I)'
_computing_cell_refinement       ?
_computing_data_collection       ?
_computing_data_reduction        ?
_computing_molecular_graphics    'Olex2 (Dolomanov et al., 2009)'
_computing_publication_material  'Olex2 (Dolomanov et al., 2009)'
_computing_structure_refinement  'XL (Sheldrick, 2008)'
_computing_structure_solution    'olex2.solve (Bourhis et al., 2015)'
_refine_diff_density_max         0.114
_refine_diff_density_min         -0.233
_refine_diff_density_rms         0.053
_refine_ls_extinction_coef       .
_refine_ls_extinction_method     none
_refine_ls_goodness_of_fit_ref   1.070
_refine_ls_hydrogen_treatment    constr
_refine_ls_matrix_type           full
_refine_ls_number_parameters     82
_refine_ls_number_reflns         1092
_refine_ls_number_restraints     0
_refine_ls_R_factor_all          0.0548
_refine_ls_R_factor_gt           0.0428
_refine_ls_restrained_S_all      1.070
_refine_ls_shift/su_max          0.001
_refine_ls_shift/su_mean         0.000
_refine_ls_structure_factor_coef Fsqd
_refine_ls_weighting_details     
;
 w=1/[\s^2^(Fo^2^)+(0.0741P)^2^+0.0313P]
 where P=(Fo^2^+2Fc^2^)/3
;
_refine_ls_weighting_scheme      calc
_refine_ls_wR_factor_gt          0.1171
_refine_ls_wR_factor_ref         0.1261
_refine_special_details          
;
 ?
;
_olex2_refinement_description    
;
1. Fixed Uiso
 At 1.2 times of:
  All C(H) groups
2.a Aromatic/amide H refined with riding coordinates:
 C1(H1), C2(H2), C6(H6), C8(H8)
;
_atom_sites_solution_hydrogens   geom
_atom_sites_solution_primary     iterative
_atom_sites_solution_secondary   ?
loop_
_atom_site_label
_atom_site_type_symbol
_atom_site_fract_x
_atom_site_fract_y
_atom_site_fract_z
_atom_site_U_iso_or_equiv
_atom_site_adp_type
_atom_site_occupancy
_atom_site_site_symmetry_order
_atom_site_calc_flag
_atom_site_refinement_flags_posn
_atom_site_refinement_flags_adp
_atom_site_refinement_flags_occupancy
_atom_site_disorder_assembly
_atom_site_disorder_group
N1 N 0.3270(4) 0.19450(16) -0.73309(15) 0.0664(5) Uani 1 1 d . . . . .
C1 C -0.0644(4) 0.15446(16) -0.17991(16) 0.0437(4) Uani 1 1 d . . . . .
H1 H -0.2027 0.0552 -0.1273 0.052 Uiso 1 1 calc R . . . .
C2 C 0.0795(3) 0.19375(15) -0.33602(15) 0.0388(4) Uani 1 1 d . . . . .
H2 H 0.0398 0.1205 -0.3886 0.047 Uiso 1 1 calc R . . . .
C3 C 0.2902(3) 0.34606(14) -0.41944(14) 0.0312(3) Uani 1 1 d . . . . .
C4 C 0.4421(3) 0.39219(14) -0.58144(14) 0.0321(3) Uani 1 1 d . . . . .
C5 C 0.6499(3) 0.54269(15) -0.66408(14) 0.0316(3) Uani 1 1 d . . . . .
C6 C 1.0048(4) 0.73641(18) -0.90286(16) 0.0454(4) Uani 1 1 d . . . . .
H6 H 1.1044 0.7649 -1.0092 0.054 Uiso 1 1 calc R . . . .
C7 C 0.3783(3) 0.27998(16) -0.66639(15) 0.0419(4) Uani 1 1 d . . . . .
C8 C 0.8032(3) 0.59017(17) -0.82812(15) 0.0398(4) Uani 1 1 d . . . . .
H8 H 0.7647 0.5205 -0.8843 0.048 Uiso 1 1 calc R . . . .

loop_
_atom_site_aniso_label
_atom_site_aniso_U_11
_atom_site_aniso_U_22
_atom_site_aniso_U_33
_atom_site_aniso_U_23
_atom_site_aniso_U_13
_atom_site_aniso_U_12
N1 0.0833(11) 0.0610(9) 0.0592(9) -0.0335(7) -0.0035(7) -0.0137(7)
C1 0.0420(7) 0.0361(7) 0.0434(8) -0.0021(6) -0.0048(6) 0.0021(5)
C2 0.0404(7) 0.0327(7) 0.0425(8) -0.0107(5) -0.0095(5) 0.0043(5)
C3 0.0304(6) 0.0304(6) 0.0336(7) -0.0097(5) -0.0090(5) 0.0096(5)
C4 0.0326(6) 0.0321(7) 0.0342(7) -0.0132(5) -0.0087(5) 0.0077(5)
C5 0.0300(6) 0.0338(7) 0.0322(7) -0.0108(5) -0.0088(5) 0.0104(5)
C6 0.0472(8) 0.0493(8) 0.0320(7) -0.0066(6) -0.0016(6) 0.0084(6)
C7 0.0449(7) 0.0429(7) 0.0365(7) -0.0146(6) -0.0033(5) -0.0007(5)
C8 0.0438(7) 0.0429(7) 0.0335(7) -0.0144(6) -0.0062(5) 0.0081(5)

_geom_special_details            
;
 All esds (except the esd in the dihedral angle between two l.s. planes)
 are estimated using the full covariance matrix.  The cell esds are taken
 into account individually in the estimation of esds in distances, angles
 and torsion angles; correlations between esds in cell parameters are only
 used when they are defined by crystal symmetry.  An approximate (isotropic)
 treatment of cell esds is used for estimating esds involving l.s. planes.
;
loop_
_geom_bond_atom_site_label_1
_geom_bond_atom_site_label_2
_geom_bond_distance
_geom_bond_site_symmetry_2
_geom_bond_publ_flag
N1 C7 1.129(2) . ?
C1 H1 0.9300 . ?
C1 C2 1.365(4) . ?
C1 C6 1.418(3) 2_664 ?
C2 H2 0.9300 . ?
C2 C3 1.427(3) . ?
C3 C4 1.415(4) . ?
C3 C5 1.438(3) 2_664 ?
C4 C5 1.410(3) . ?
C4 C7 1.459(3) . ?
C5 C3 1.438(3) 2_664 ?
C5 C8 1.432(4) . ?
C6 C1 1.418(3) 2_664 ?
C6 H6 0.9300 . ?
C6 C8 1.363(3) . ?
C8 H8 0.9300 . ?

loop_
_geom_angle_atom_site_label_1
_geom_angle_atom_site_label_2
_geom_angle_atom_site_label_3
_geom_angle
_geom_angle_site_symmetry_1
_geom_angle_site_symmetry_3
_geom_angle_publ_flag
C2 C1 H1 119.7 . . ?
C2 C1 C6 120.62(17) . 2_664 ?
C6 C1 H1 119.7 2_664 . ?
C1 C2 H2 119.7 . . ?
C1 C2 C3 120.69(15) . . ?
C3 C2 H2 119.7 . . ?
C2 C3 C5 118.82(19) . 2_664 ?
C4 C3 C2 122.53(14) . . ?
C4 C3 C5 118.65(17) . 2_664 ?
C3 C4 C7 118.60(17) . . ?
C5 C4 C3 122.61(14) . . ?
C5 C4 C7 118.79(18) . . ?
C4 C5 C3 118.75(19) . 2_664 ?
C4 C5 C8 122.81(14) . . ?
C8 C5 C3 118.45(18) . 2_664 ?
C1 C6 H6 119.7 2_664 . ?
C8 C6 C1 120.68(19) . 2_664 ?
C8 C6 H6 119.7 . . ?
N1 C7 C4 179.23(15) . . ?
C5 C8 H8 119.6 . . ?
C6 C8 C5 120.73(15) . . ?
C6 C8 H8 119.6 . . ?

loop_
_geom_torsion_atom_site_label_1
_geom_torsion_atom_site_label_2
_geom_torsion_atom_site_label_3
_geom_torsion_atom_site_label_4
_geom_torsion
_geom_torsion_site_symmetry_1
_geom_torsion_site_symmetry_2
_geom_torsion_site_symmetry_3
_geom_torsion_site_symmetry_4
_geom_torsion_publ_flag
C1 C2 C3 C4 -179.52(10) . . . . ?
C1 C2 C3 C5 0.33(19) . . . 2_664 ?
C1 C6 C8 C5 -0.6(2) 2_664 . . . ?
C2 C3 C4 C5 179.92(10) . . . . ?
C2 C3 C4 C7 0.45(18) . . . . ?
C3 C4 C5 C3 -0.06(19) . . . 2_664 ?
C3 C4 C5 C8 -179.78(10) . . . . ?
C3 C5 C8 C6 0.84(19) 2_664 . . . ?
C4 C5 C8 C6 -179.44(10) . . . . ?
C5 C3 C4 C5 0.06(19) 2_664 . . . ?
C5 C3 C4 C7 -179.41(9) 2_664 . . . ?
C6 C1 C2 C3 -0.5(2) 2_664 . . . ?
C7 C4 C5 C3 179.41(9) . . . 2_664 ?
C7 C4 C5 C8 -0.32(19) . . . . ?

loop_
_refln_index_h
_refln_index_k
_refln_index_l
_refln_F_squared_meas
_refln_F_squared_sigma
-1 0 0 22.4 1.3
-1 0 0 19.5 1.3
-1 0 0 20.7 1.3
-1 0 0 23.4 1.2
1 0 0 26 1.2
1 0 0 22.8 1.3
1 0 0 23 1.3
1 0 0 21.9 1.3
1 0 0 23.2 1.3
1 0 0 23.8 1.4
-2 0 0 3.9 0.4
2 0 0 3.3 0.6
2 0 0 5.6 0.4
2 0 0 4.6 0.6
2 0 0 3.7 0.5
2 0 0 4.8 0.7
2 0 0 6.1 0.6
-3 0 0 139.99 8.2
3 0 0 161.18 8
3 0 0 148.29 8
3 0 0 154.38 8.1
3 0 0 148.19 8.2
-4 0 0 1.6 0.9
4 0 0 0.6 0.7
4 0 0 0.9 0.9
4 0 0 1.9 0.8
4 0 0 1.2 0.7
4 -1 0 1.3 0.7
4 -1 0 -0.9 0.7
4 -1 0 -0.6 0.7
4 -1 0 0 0.8
-4 1 0 1.2 0.9
3 -1 0 -0.2 0.6
3 -1 0 1.1 0.5
3 -1 0 1.9 0.6
3 -1 0 0.6 0.5
3 -1 0 1.2 0.7
-3 1 0 0.8 0.7
2 -1 0 71.29 3.7
2 -1 0 70.79 3.8
2 -1 0 63.49 3.7
2 -1 0 74.79 3.7
2 -1 0 69.09 3.7
2 -1 0 66.79 3.9
-2 1 0 63.19 3.8
1 -1 0 4692.73 234.28
1 -1 0 4546.85 233.88
1 -1 0 4420.66 233.78
-1 1 0 4476.55 233.68
-1 1 0 4634.94 234.18
0 -1 0 1069.49 55.99
0 -1 0 1092.79 55.89
0 -1 0 1134.49 57.89
0 -1 0 1028.8 55.99
0 -1 0 1082.79 56.09
0 -1 0 1034.6 55.99
0 1 0 1092.79 56.09
0 1 0 1059.79 55.89
0 1 0 1097.79 55.89
0 1 0 1090.19 55.99
0 1 0 1070.79 56.09
0 1 0 1220.38 56.09
-1 -1 0 328.87 16.5
1 1 0 319.07 16.5
1 1 0 326.77 16.5
1 1 0 317.07 16.6
1 1 0 316.07 16.5
1 1 0 312.17 16.5
-2 -1 0 635.74 34.6
2 1 0 665.13 34.7
2 1 0 695.83 34.7
2 1 0 671.43 34.7
2 1 0 664.23 34.8
2 1 0 710.13 34.7
3 1 0 3.9 0.7
3 1 0 3.6 0.8
3 1 0 3.7 0.6
3 1 0 4.1 0.7
-4 -1 0 1.1 0.9
4 1 0 -0.9 0.7
4 1 0 -0.4 0.7
4 1 0 -0.9 0.7
4 -2 0 -0.5 0.7
4 -2 0 0.6 0.7
4 -2 0 -0.3 0.8
-4 2 0 0.4 1
3 -2 0 71.09 3.9
3 -2 0 66.49 3.9
3 -2 0 68.99 3.9
3 -2 0 68.39 3.9
3 -2 0 70.89 4.1
-3 2 0 65.89 4.1
2 -2 0 19.2 1.2
2 -2 0 13.9 1.3
2 -2 0 17.3 1.2
2 -2 0 18 1.2
2 -2 0 19 1.2
-2 2 0 18.4 1.4
1 -2 0 1838.02 91.49
1 -2 0 1783.72 91.19
1 -2 0 1799.12 91.19
1 -2 0 1762.32 91.39
1 -2 0 1846.02 91.29
-1 2 0 1821.92 91.29
-1 2 0 1808.82 91.49
-1 2 0 1561.74 91.19
0 -2 0 1408.96 71.99
0 -2 0 1339.57 71.69
0 -2 0 1521.05 71.79
0 -2 0 1374.76 71.89
0 2 0 1426.96 71.99
0 2 0 1496.75 71.79
0 2 0 1299.37 71.69
0 2 0 1312.77 71.69
-1 -2 0 79.39 4.2
-1 -2 0 73.29 4.3
1 2 0 80.49 4.3
1 2 0 91.39 4.3
1 2 0 81.19 4.3
1 2 0 78.09 4.3
1 2 0 80.89 4.2
1 2 0 79.69 4.2
-2 -2 0 209.28 10.8
2 2 0 197.78 10.8
2 2 0 225.38 10.8
2 2 0 194.78 10.9
2 2 0 208.78 10.7
2 2 0 201.28 10.8
3 2 0 35.6 2.3
3 2 0 35.4 2.3
3 2 0 37.6 2.1
3 2 0 36.1 2.5
4 2 0 2.6 0.8
4 2 0 5.1 0.9
4 2 0 4.2 1
4 -3 0 0.6 0.8
4 -3 0 -0.1 0.8
4 -3 0 0.5 0.7
-4 3 0 0.9 0.9
3 -3 0 20.1 1.5
3 -3 0 18.5 1.5
3 -3 0 20.9 1.5
3 -3 0 18.6 1.7
-3 3 0 19.2 1.8
2 -3 0 43.2 2.4
2 -3 0 44.5 2.4
2 -3 0 41.3 2.5
2 -3 0 42.6 2.6
2 -3 0 41.9 2.5
-2 3 0 42.9 2.6
-2 3 0 40.1 2.4
1 -3 0 68.19 3.5
1 -3 0 71.69 3.5
1 -3 0 64.59 3.5
1 -3 0 60.49 3.6
1 -3 0 67.89 3.7
-1 3 0 64.49 3.6
-1 3 0 67.79 3.5
-1 3 0 63.29 3.6
0 -3 0 258.17 12.5
0 -3 0 251.47 12.5
0 -3 0 238.58 12.6
0 -3 0 235.18 12.6
0 3 0 237.78 12.5
0 3 0 254.37 12.6
0 3 0 220.78 12.5
0 3 0 243.38 12.5
-1 -3 0 485.55 22.5
-1 -3 0 423.66 22.6
-1 -3 0 411.06 22.6
1 3 0 411.36 22.5
1 3 0 482.35 22.5
1 3 0 426.36 22.7
1 3 0 401.96 22.6
1 3 0 501.35 22.7
1 3 0 420.66 22.7
1 3 0 420.86 22.7
-2 -3 0 17.3 1
2 3 0 20.1 1.4
2 3 0 17.2 1.4
2 3 0 17.2 1
2 3 0 17.5 1.4
2 3 0 18.1 1.1
2 3 0 17.4 1.2
3 3 0 -0.8 0.5
3 3 0 -0.5 0.6
3 3 0 -0.6 0.5
4 3 0 40.3 2.8
4 3 0 39.9 2.8
4 3 0 43.7 3.1
4 -4 0 0.1 0.8
4 -4 0 0.2 0.8
4 -4 0 -0.2 0.8
-4 4 0 1.1 1
-4 4 0 0.9 0.7
3 -4 0 11 1.4
3 -4 0 13.4 1.4
3 -4 0 15.5 1.3
3 -4 0 15.4 1.4
-3 4 0 13.3 1.6
2 -4 0 7.7 1
2 -4 0 6.7 0.8
2 -4 0 8.2 0.8
2 -4 0 8 0.8
-2 4 0 8.3 0.8
-2 4 0 7.8 1
1 -4 0 82.29 4.8
1 -4 0 88.99 4.7
1 -4 0 88.29 4.7
1 -4 0 89.49 4.9
-1 4 0 85.09 4.8
-1 4 0 91.59 4.7
-1 4 0 91.49 4.8
0 -4 0 14.9 1.2
0 -4 0 16.4 0.9
0 -4 0 16.5 1
0 4 0 16.2 1.1
0 4 0 15.9 0.9
0 4 0 16.5 1.2
0 4 0 15.3 1
-1 -4 0 184.08 9.7
-1 -4 0 186.68 9.7
1 4 0 194.08 9.5
1 4 0 188.98 9.8
1 4 0 177.38 9.5
1 4 0 183.18 9.7
1 4 0 176.88 9.6
-2 -4 0 1.8 0.3
2 4 0 1.7 0.6
2 4 0 1.4 0.3
2 4 0 1.2 0.5
2 4 0 1.6 0.5
3 4 0 39.2 2.5
3 4 0 41.2 2.7
3 4 0 37.5 2.6
4 4 0 4.8 0.9
4 4 0 4.2 1
4 4 0 3.9 1.6
4 -5 0 0.9 0.9
4 -5 0 0.3 0.9
4 -5 0 0.8 0.9
-4 5 0 -0.4 1.2
-4 5 0 2.1 0.9
3 -5 0 0.2 0.7
3 -5 0 0.3 0.6
3 -5 0 0.1 0.7
3 -5 0 0.6 0.8
-3 5 0 -0.4 0.6
-3 5 0 0.5 0.8
2 -5 0 -0.1 0.5
2 -5 0 0.2 0.5
2 -5 0 -0.1 0.4
2 -5 0 -0.5 0.7
-2 5 0 0.6 0.6
-2 5 0 -0.5 0.4
1 -5 0 9.7 1
1 -5 0 11.7 0.9
1 -5 0 10.4 1.2
1 -5 0 10.4 0.8
-1 5 0 11.7 1
-1 5 0 10.9 1
-1 5 0 10.4 0.8
0 -5 0 220.88 11.1
0 -5 0 211.78 11.3
0 -5 0 213.78 11
0 5 0 205.78 11
0 5 0 201.98 11
0 5 0 216.48 11.1
0 5 0 217.98 11.2
-1 -5 0 0.1 0.3
-1 -5 0 -0.1 0.4
1 5 0 0 0.3
1 5 0 0.2 0.4
1 5 0 0.2 0.2
1 5 0 0.7 0.5
2 5 0 0 0.5
2 5 0 0.3 0.5
2 5 0 0.4 0.7
3 5 0 47.9 3
3 5 0 47.1 3.1
3 5 0 51.49 3.2
3 -6 0 25.2 1.9
3 -6 0 28.7 2
3 -6 0 23.8 1.9
3 -6 0 20.4 2.2
-3 6 0 23.4 1.9
-3 6 0 23.9 2.2
2 -6 0 9.1 1.4
2 -6 0 12 1.2
2 -6 0 11.1 1.2
-2 6 0 12.4 1.4
-2 6 0 9.7 1.1
1 -6 0 24.9 1.6
1 -6 0 24.3 2
1 -6 0 27.5 1.6
-1 6 0 26.2 1.7
-1 6 0 24.9 1.6
0 -6 0 -0.3 0.6
0 -6 0 0.9 0.3
0 -6 0 -0.7 0.3
0 6 0 -0.4 0.5
0 6 0 0.2 0.4
0 6 0 0.1 0.3
0 6 0 -0.2 0.2
-1 -6 0 -1.1 0.5
1 6 0 0 0.4
1 6 0 0.2 0.4
1 6 0 -0.7 0.6
2 6 0 36.5 2.4
2 6 0 29 2
2 6 0 30.7 2.2
3 6 0 1.9 0.7
3 6 0 2.7 1
3 6 0 2.1 0.7
3 -7 0 0.7 0.8
3 -7 0 1.8 1.2
3 -7 0 -0.1 0.8
-3 7 0 -0.2 1
-3 7 0 -0.5 0.9
2 -7 0 3.7 1.2
2 -7 0 1.7 0.7
2 -7 0 1.5 0.7
-2 7 0 0.9 0.7
-2 7 0 2.1 0.8
1 -7 0 20.2 1.7
1 -7 0 23.6 2.1
1 -7 0 26.7 1.6
-1 7 0 23.4 1.5
-1 7 0 25.8 1.8
0 -7 0 10.7 0.8
0 -7 0 7.2 1.1
0 -7 0 10.2 1.3
0 7 0 11.5 0.9
0 7 0 9.2 0.7
0 7 0 8.8 1
-1 -7 0 2.3 0.7
1 7 0 0.5 0.5
1 7 0 1.6 0.5
1 7 0 0.5 0.7
2 7 0 17.9 1.7
2 7 0 20.6 1.5
2 7 0 23.2 2.1
3 7 0 1.3 1
3 7 0 1.1 0.6
3 -8 0 -0.2 0.9
-3 8 0 -3.5 1.1
2 -8 0 6.2 0.9
2 -8 0 5.7 1.4
2 -8 0 3.8 0.8
-2 8 0 5.6 0.9
-2 8 0 4.8 1
1 -8 0 8.4 1.4
1 -8 0 9.3 1
1 -8 0 9.1 1.3
-1 8 0 13.4 1.5
-1 8 0 8.6 0.9
-1 8 0 12.2 1.1
0 -8 0 4.5 1.2
0 8 0 4.6 0.8
0 8 0 4.1 0.6
-1 -8 0 2.3 0.9
1 8 0 1.6 0.5
1 8 0 1.3 0.6
2 8 0 11.6 1.2
2 8 0 9.2 1.3
2 -9 0 99.19 5.6
2 -9 0 101.39 5.8
-2 9 0 101.19 5.6
1 -9 0 4.4 1.1
1 -9 0 4.5 1.4
1 -9 0 6.5 0.8
-1 9 0 5.5 0.8
-1 9 0 3.9 1
0 -9 0 17.7 2
0 9 0 15.2 1.6
0 9 0 16.2 1.3
1 9 0 0.9 0.6
1 9 0 1.4 0.5
2 9 0 1.4 0.6
-1 10 0 2.6 0.8
0 -10 0 1 1.2
0 10 0 0.1 0.5
1 10 1 43.9 2.8
0 10 1 -1.5 0.6
0 10 1 -0.4 0.5
0 -10 -1 -0.4 1
-1 10 1 -0.7 0.7
2 9 1 4.6 0.8
1 9 1 -0.7 0.5
1 9 1 -0.3 0.5
-1 -9 -1 0.5 0.9
0 9 1 -0.5 0.7
0 9 1 0.8 0.5
0 -9 -1 2.1 1
-1 9 1 149.79 8
-1 9 1 157.68 8.2
-1 9 1 146.49 8
1 -9 -1 152.08 8
1 -9 -1 154.08 8.6
1 -9 -1 142.89 8.1
-2 9 1 54.29 3.4
-2 9 1 46.3 3
-2 9 1 45.2 3
2 -9 -1 50.49 3.1
2 -9 -1 46.4 3.8
2 -9 -1 51.19 3.2
2 8 1 -0.6 0.5
2 8 1 -0.2 0.5
1 8 1 39.7 2.6
1 8 1 39.6 2.5
-1 -8 -1 44.9 2.8
0 8 1 0.5 0.4
0 8 1 0.3 0.4
0 8 1 -0.1 0.5
0 -8 -1 0.3 0.8
0 -8 -1 0.7 0.4
0 -8 -1 0.4 0.5
-1 8 1 239.68 13.1
-1 8 1 244.68 13.1
-1 8 1 268.57 13.3
1 -8 -1 244.68 13.6
1 -8 -1 250.27 13.2
1 -8 -1 257.97 13.1
-2 8 1 5.9 0.9
-2 8 1 5.4 1.1
2 -8 -1 8 1.5
2 -8 -1 6.3 0.9
2 -8 -1 7.2 0.9
-3 8 1 1.4 1.6
3 -8 -1 2.6 1.4
3 -8 -1 3.1 1.3
3 7 1 7 1
3 7 1 6.9 1
2 7 1 6.5 0.9
2 7 1 6.3 0.8
2 7 1 8.4 1.4
1 7 1 21.3 1.6
1 7 1 24.5 1.5
-1 -7 -1 25.1 1.8
0 7 1 108.69 6
0 7 1 107.89 5.9
0 7 1 104.49 5.8
0 -7 -1 115.39 6.2
0 -7 -1 111.49 6
0 -7 -1 114.19 5.8
-1 7 1 -0.6 0.5
-1 7 1 0.4 0.4
-1 7 1 0 0.5
1 -7 -1 -0.1 0.4
1 -7 -1 0.4 0.5
1 -7 -1 0.6 0.8
-2 7 1 -0.3 0.6
-2 7 1 0 0.7
2 -7 -1 -0.2 0.5
2 -7 -1 -0.2 0.6
2 -7 -1 0.5 1
-3 7 1 74.39 4.3
-3 7 1 73.99 4.6
3 -7 -1 70.09 4.3
3 -7 -1 65.59 4.7
3 -7 -1 80.19 4.3
3 6 1 6.4 1
3 6 1 10 1.3
3 6 1 7.2 1
2 6 1 1.1 0.5
2 6 1 1.4 0.8
2 6 1 1 0.5
1 6 1 6.3 0.5
1 6 1 4.9 0.6
1 6 1 6.1 0.8
1 6 1 4.4 0.8
-1 -6 -1 5.8 0.7
-1 -6 -1 5.2 0.8
0 6 1 85.29 4.9
0 6 1 86.49 4.7
0 6 1 86.69 4.6
0 6 1 87.39 4.7
0 -6 -1 90.69 4.6
0 -6 -1 87.89 4.7
0 -6 -1 87.89 4.9
-1 6 1 0.5 0.5
-1 6 1 1.2 0.4
1 -6 -1 -0.1 0.7
1 -6 -1 0.6 0.4
1 -6 -1 0.4 0.4
-2 6 1 33.4 2.2
-2 6 1 30.3 2
2 -6 -1 30 2
2 -6 -1 32.6 2
2 -6 -1 28.9 2.4
-3 6 1 42.5 3
-3 6 1 43 2.6
3 -6 -1 36.9 2.6
3 -6 -1 34.6 2.9
3 -6 -1 42.6 2.6
3 -6 -1 41.6 2.6
4 5 1 4.6 1.1
3 5 1 7.8 1
3 5 1 8.8 1.1
3 5 1 6.9 1
2 5 1 5 0.7
2 5 1 4.8 0.7
2 5 1 5.3 0.6
2 5 1 5.6 0.9
1 5 1 31.5 1.8
1 5 1 33.2 2.1
1 5 1 31.4 1.9
1 5 1 31.9 1.9
-1 -5 -1 32.6 2
-1 -5 -1 32.7 2
0 5 1 18.8 1.4
0 5 1 18.7 1.2
0 5 1 18.3 1.2
0 5 1 19.3 1.1
0 -5 -1 19.2 1.4
0 -5 -1 20.3 1.3
0 -5 -1 20 1.1
-1 5 1 2 0.5
-1 5 1 2.7 0.5
-1 5 1 2.2 0.4
1 -5 -1 2.3 0.4
1 -5 -1 2.8 0.4
1 -5 -1 1.6 0.5
1 -5 -1 1.6 0.7
-2 5 1 166.38 9
-2 5 1 172.18 8.8
2 -5 -1 156.78 8.8
2 -5 -1 156.88 9.1
2 -5 -1 171.08 8.8
2 -5 -1 177.28 8.8
-3 5 1 1.4 0.7
-3 5 1 1.1 0.8
3 -5 -1 1.3 0.6
3 -5 -1 1.4 0.7
3 -5 -1 0.5 0.8
3 -5 -1 1.8 0.7
-4 5 1 -1.4 1.3
-4 5 1 -0.4 0.8
4 -5 -1 0.6 1.2
4 -5 -1 0 0.8
4 -5 -1 -0.5 0.9
4 4 1 33.4 2.4
4 4 1 34.9 2.6
4 4 1 31.7 2.5
3 4 1 -0.1 0.5
3 4 1 -0.5 0.6
3 4 1 -0.4 0.6
2 4 1 -0.3 0.4
2 4 1 0.5 0.4
2 4 1 0.2 0.2
2 4 1 0.2 0.5
-2 -4 -1 0.5 0.2
-2 -4 -1 0.5 0.3
1 4 1 138.69 7.4
1 4 1 140.59 7.4
1 4 1 137.69 7.3
1 4 1 145.69 7.5
-1 -4 -1 143.89 7.4
-1 -4 -1 139.09 7.4
0 4 1 4.5 0.6
0 4 1 4.5 0.4
0 4 1 4.7 0.5
0 4 1 4.7 0.4
0 -4 -1 3.8 0.6
0 -4 -1 4.3 0.5
0 -4 -1 4.1 0.6
0 -4 -1 4.4 0.4
-1 4 1 42.7 2.5
-1 4 1 47.1 2.6
-1 4 1 47.6 2.5
1 -4 -1 42.2 2.5
1 -4 -1 43.5 2.7
1 -4 -1 46.6 2.5
1 -4 -1 44.1 2.5
-2 4 1 0.5 0.5
-2 4 1 1.3 0.4
2 -4 -1 0.7 0.4
2 -4 -1 0.6 0.4
2 -4 -1 0.8 0.4
2 -4 -1 0.5 0.6
2 -4 -1 0.7 0.5
-3 4 1 3.5 0.9
-3 4 1 3.3 0.7
3 -4 -1 2 0.8
3 -4 -1 3.6 0.8
3 -4 -1 5.8 0.8
3 -4 -1 3.7 0.7
-4 4 1 42.3 3.3
-4 4 1 40.8 2.8
4 -4 -1 44.9 2.9
4 -4 -1 47 2.9
4 -4 -1 44.1 2.9
4 3 1 6.6 1.1
4 3 1 6.8 1.1
4 3 1 7.4 1.1
3 3 1 -0.7 0.6
3 3 1 -0.9 0.6
3 3 1 0.8 0.6
3 3 1 0.8 0.4
2 3 1 199.98 10.3
2 3 1 196.78 10.2
2 3 1 189.68 10.3
2 3 1 196.08 10.3
1 3 1 -0.1 0.2
1 3 1 -0.1 0.3
1 3 1 0 0.2
1 3 1 0.2 0.4
1 3 1 0.2 0.2
-1 -3 -1 -0.5 0.2
-1 -3 -1 0.1 0.3
0 3 1 171.28 9.3
0 3 1 177.98 9.4
0 3 1 188.98 9.3
0 3 1 173.28 9.4
0 -3 -1 184.88 9.3
0 -3 -1 181.38 9.4
0 -3 -1 178.98 9.4
0 -3 -1 187.38 9.4
-1 3 1 23.2 1.5
-1 3 1 25.3 1.4
-1 3 1 22.4 1.3
1 -3 -1 24.6 1.6
1 -3 -1 27.5 1.4
1 -3 -1 23.7 1.4
1 -3 -1 23.6 1.4
1 -3 -1 23.6 1.4
-2 3 1 25.3 1.8
2 -3 -1 26.6 1.6
2 -3 -1 24.9 1.8
2 -3 -1 24.9 1.6
2 -3 -1 27.8 1.6
2 -3 -1 27.4 1.6
-3 3 1 15.3 1.6
3 -3 -1 15.7 1.3
3 -3 -1 14.8 1.3
3 -3 -1 15.6 1.3
3 -3 -1 12.7 1.4
-4 3 1 25.7 2.4
4 -3 -1 29.9 2.1
4 -3 -1 27.5 2.1
4 -3 -1 25.3 2.1
4 2 1 1 0.8
4 2 1 0.8 0.8
4 2 1 0.7 0.8
3 2 1 7.9 1.1
3 2 1 5.8 0.9
3 2 1 5.8 0.7
3 2 1 6.4 0.9
2 2 1 118.39 6.1
2 2 1 109.89 6
2 2 1 115.39 5.9
2 2 1 111.89 6.1
2 2 1 107.19 6.1
-2 -2 -1 113.39 6
1 2 1 448.96 23.1
1 2 1 427.66 23.2
1 2 1 423.06 23.2
1 2 1 434.76 23.1
1 2 1 468.05 23.2
1 2 1 486.35 23.1
-1 -2 -1 397.96 23.1
-1 -2 -1 448.76 23.1
-1 -2 -1 507.45 23.1
0 2 1 21.1 1.1
0 2 1 23 1.1
0 2 1 20.1 1.1
0 2 1 20.6 1.1
0 2 1 19.9 1.2
0 2 1 19.7 1.2
0 -2 -1 19.4 1.2
0 -2 -1 21.3 1.2
0 -2 -1 21.8 1.1
0 -2 -1 19.1 1.1
0 -2 -1 20.4 1.1
0 -2 -1 20.9 1.1
-1 2 1 107.29 5.8
-1 2 1 106.89 5.9
1 -2 -1 113.29 5.8
1 -2 -1 109.89 5.8
1 -2 -1 112.19 5.8
1 -2 -1 113.79 5.8
1 -2 -1 115.39 5.9
-2 2 1 46.2 2.9
2 -2 -1 50.79 2.8
2 -2 -1 45.2 2.7
2 -2 -1 51.89 2.8
2 -2 -1 48.4 2.9
2 -2 -1 52.79 2.8
2 -2 -1 49.2 2.7
-3 2 1 32.1 2.3
3 -2 -1 33.6 2
3 -2 -1 32.5 2.4
3 -2 -1 31.1 2
3 -2 -1 30.8 2.1
3 -2 -1 32.2 2
-4 2 1 7.7 1.3
4 -2 -1 6.7 1.3
4 -2 -1 9.6 1.3
4 -2 -1 8.9 1
4 -2 -1 7.2 1.1
4 1 1 6.5 0.9
4 1 1 8.3 1.1
4 1 1 4.4 1
4 1 1 5.9 1
-4 -1 -1 6.8 1.2
3 1 1 134.99 7.2
3 1 1 133.89 7.3
3 1 1 132.99 7.4
3 1 1 136.09 7.3
2 1 1 22.5 1.4
2 1 1 19.5 1.4
2 1 1 23.2 1.3
2 1 1 22.1 1.5
-2 -1 -1 19.8 1.4
1 1 1 647.34 28.7
1 1 1 551.54 28.7
1 1 1 535.85 28.7
1 1 1 508.15 28.7
1 1 1 529.75 28.7
1 1 1 558.14 28.6
-1 -1 -1 559.64 28.7
-1 -1 -1 579.44 28.6
-1 -1 -1 547.25 28.7
0 1 1 1175.58 65.19
0 1 1 1223.38 63.39
0 1 1 1319.17 63.19
0 1 1 1125.39 63.19
0 -1 -1 1401.26 63.19
0 -1 -1 1215.48 63.19
0 -1 -1 1140.59 63.19
-1 1 1 749.73 39.2
-1 1 1 736.23 39.2
1 -1 -1 728.73 39.1
1 -1 -1 773.72 39.1
1 -1 -1 779.12 39.2
1 -1 -1 806.52 39.2
-2 1 1 109.69 6.3
2 -1 -1 113.99 6.1
2 -1 -1 116.59 6.4
2 -1 -1 120.39 6.2
2 -1 -1 113.39 6.1
2 -1 -1 118.49 6.2
2 -1 -1 124.79 6.2
-3 1 1 21 1.8
3 -1 -1 21.4 1.9
3 -1 -1 21.6 1.5
3 -1 -1 19.9 1.5
3 -1 -1 21.7 1.6
-4 1 1 1.1 0.9
4 -1 -1 1 0.6
4 -1 -1 1.1 0.9
4 -1 -1 0.6 0.8
4 -1 -1 0.9 0.7
4 0 1 16 1.6
4 0 1 13.7 1.4
4 0 1 16.1 1.6
4 0 1 15.4 1.8
-4 0 -1 13.9 1.8
3 0 1 87.39 5.1
3 0 1 89.19 5
3 0 1 93.69 5
3 0 1 93.39 4.9
-3 0 -1 85.69 5.1
2 0 1 251.17 11.9
2 0 1 236.18 12.1
2 0 1 227.98 12
2 0 1 225.18 12.1
2 0 1 228.88 12
2 0 1 236.48 12
-2 0 -1 217.08 12.1
-2 0 -1 222.28 12
-2 0 -1 225.68 11.9
1 0 1 1867.21 82.89
1 0 1 1727.03 82.89
1 0 1 1589.54 82.79
1 0 1 1553.34 82.79
1 0 1 1713.03 82.79
-1 0 -1 1743.73 82.89
-1 0 -1 1520.45 82.89
-1 0 -1 1407.26 82.59
-1 0 -1 1380.16 82.59
0 0 1 656.03 31.7
0 0 1 611.64 31.7
0 0 1 621.84 31.6
0 0 -1 600.54 31.7
0 0 -1 590.64 31.7
-1 0 1 953.5 46.3
-1 0 1 811.32 46.2
1 0 -1 933.71 46.3
1 0 -1 888.51 46.2
1 0 -1 941.41 46.3
1 0 -1 902.41 46.3
1 0 -1 870.91 46.2
-2 0 1 41.4 2.2
-2 0 1 36.8 2.1
2 0 -1 36.7 2.2
2 0 -1 41.4 2.2
2 0 -1 39.9 2.2
2 0 -1 39.2 2.4
2 0 -1 38.1 2.3
2 0 -1 42.5 2.3
3 0 -1 8.6 1
3 0 -1 7.4 0.9
3 0 -1 7.8 1
3 0 -1 7.7 0.8
-4 0 1 5 1.1
4 0 -1 4.4 1.1
4 0 -1 3.7 0.9
4 0 -1 4.2 0.9
4 -1 1 72.69 4.3
4 -1 1 73.99 4.3
4 -1 1 69.89 4.5
4 -1 1 71.39 4.2
-4 1 -1 70.49 4.4
3 -1 1 0.1 0.6
3 -1 1 1.6 0.5
3 -1 1 0.8 0.5
3 -1 1 0 0.6
3 -1 1 0.1 0.6
-3 1 -1 -0.1 0.6
2 -1 1 2.6 0.5
2 -1 1 3.1 0.5
2 -1 1 4.2 0.6
2 -1 1 5.1 0.6
2 -1 1 3.6 0.5
-2 1 -1 2.7 0.6
-2 1 -1 3 0.5
1 -1 1 9094.79 478.95
1 -1 1 9999 478.85
1 -1 1 9076.49 478.75
-1 1 -1 9083.29 478.85
-1 1 -1 9464.45 478.95
-1 1 -1 9274.47 478.85
0 -1 1 8.8 0.7
0 -1 1 9.5 0.6
0 -1 1 11.6 0.6
0 -1 1 10 0.6
0 -1 1 9.7 0.7
0 1 -1 10.1 0.6
0 1 -1 9.3 0.6
0 1 -1 9.2 0.7
0 1 -1 10 0.5
0 1 -1 10 0.6
0 1 -1 9.3 0.7
-1 -1 1 102.49 5.4
-1 -1 1 108.99 5.5
1 1 -1 100.79 5.4
1 1 -1 100.09 5.5
1 1 -1 108.39 5.5
1 1 -1 107.49 5.5
1 1 -1 106.29 5.6
1 1 -1 107.89 5.5
-2 -1 1 117.39 6.3
-2 -1 1 125.59 6.3
2 1 -1 122.89 6.6
2 1 -1 122.89 6.5
2 1 -1 117.89 6.5
2 1 -1 125.09 6.5
2 1 -1 124.59 6.4
3 1 -1 30.5 2.2
3 1 -1 26.7 1.9
3 1 -1 30.9 1.8
3 1 -1 28.8 2
-4 -1 1 5 1.1
4 1 -1 1.9 0.8
4 1 -1 3.4 0.8
4 1 -1 3.5 1
4 -2 1 0.2 0.7
4 -2 1 -0.8 0.7
4 -2 1 -0.7 0.7
-4 2 -1 0 0.8
3 -2 1 0.5 0.6
3 -2 1 1.1 0.6
3 -2 1 0.9 0.5
3 -2 1 0.1 0.6
-3 2 -1 -0.5 0.6
2 -2 1 2651.43 148.89
2 -2 1 2962.1 149.19
2 -2 1 3006.2 148.89
2 -2 1 2966.4 148.89
-2 2 -1 2868.71 148.99
-2 2 -1 2960.9 149.09
1 -2 1 77.69 4
1 -2 1 69.39 4
1 -2 1 72.99 3.9
1 -2 1 73.59 3.9
1 -2 1 75.19 3.9
-1 2 -1 76.39 4
-1 2 -1 74.39 3.9
-1 2 -1 68.19 3.9
0 -2 1 2.6 0.2
0 -2 1 3.4 0.3
0 -2 1 2.3 0.4
0 -2 1 3.7 0.4
0 -2 1 2.7 0.3
0 2 -1 2.2 0.3
0 2 -1 2.7 0.2
0 2 -1 3.5 0.3
0 2 -1 2.6 0.4
0 2 -1 1.9 0.2
-1 -2 1 1457.65 83.39
-1 -2 1 1632.94 83.39
1 2 -1 1827.32 83.59
1 2 -1 1794.42 83.49
1 2 -1 1515.15 83.29
1 2 -1 1555.54 83.39
1 2 -1 1587.14 83.39
-2 -2 1 3.8 0.3
-2 -2 1 3.7 0.4
2 2 -1 2.9 0.5
2 2 -1 3.6 0.4
2 2 -1 3.3 0.5
2 2 -1 4.3 0.5
2 2 -1 2.8 0.6
3 2 -1 2.6 0.6
3 2 -1 2 0.7
3 2 -1 2.6 0.7
4 2 -1 -0.3 0.7
4 2 -1 0.9 0.8
4 2 -1 -1.5 0.7
4 -3 1 6.4 1.1
4 -3 1 7.2 1.1
4 -3 1 8.3 1.1
-4 3 -1 6.5 1.2
3 -3 1 64.09 4
3 -3 1 70.39 4
3 -3 1 69.79 3.9
3 -3 1 71.69 4
-3 3 -1 66.59 4.1
2 -3 1 583.74 29.5
2 -3 1 590.44 29.6
2 -3 1 597.44 29.5
2 -3 1 598.04 29.5
2 -3 1 511.85 29.6
-2 3 -1 534.05 29.5
-2 3 -1 582.24 29.6
-2 3 -1 574.74 29.5
1 -3 1 366.16 18.8
1 -3 1 385.76 18.6
1 -3 1 341.67 18.6
1 -3 1 377.06 18.6
1 -3 1 332.07 18.7
-1 3 -1 355.26 18.7
-1 3 -1 362.56 18.6
-1 3 -1 364.66 18.7
0 -3 1 694.73 35.5
0 -3 1 647.74 35.4
0 -3 1 682.33 35.6
0 3 -1 717.53 35.5
0 3 -1 709.33 35.6
-1 -3 1 123.79 6.5
-1 -3 1 130.09 6.5
1 3 -1 123.59 6.6
1 3 -1 120.69 6.3
1 3 -1 118.39 6.3
1 3 -1 120.79 6.5
1 3 -1 124.89 6.6
-2 -3 1 38.8 2.1
2 3 -1 36 2.4
2 3 -1 39.1 2.3
2 3 -1 41.4 2.4
2 3 -1 39.8 2.1
3 3 -1 2.1 0.7
3 3 -1 2.7 0.7
3 3 -1 3.7 0.7
4 3 -1 -0.2 0.8
4 3 -1 -0.1 0.7
4 3 -1 -0.1 0.7
4 -4 1 1.5 0.9
4 -4 1 2.1 0.9
4 -4 1 2.7 1
-4 4 -1 1.8 0.8
-4 4 -1 1.9 1.1
3 -4 1 150.08 8.5
3 -4 1 161.28 8.3
3 -4 1 142.79 8.3
3 -4 1 165.58 8.4
-3 4 -1 148.19 8.3
-3 4 -1 159.18 8.5
2 -4 1 81.09 4.2
2 -4 1 79.29 4.2
2 -4 1 73.29 4.2
2 -4 1 74.99 4.4
-2 4 -1 74.19 4.3
-2 4 -1 77.09 4.2
1 -4 1 0.7 0.6
1 -4 1 1.2 0.4
1 -4 1 1.8 0.4
-1 4 -1 1.5 0.5
-1 4 -1 2.1 0.3
-1 4 -1 1.4 0.4
0 -4 1 460.35 24
0 -4 1 471.75 24.2
0 -4 1 480.45 24.1
0 4 -1 487.05 24.2
0 4 -1 447.86 24.1
0 4 -1 451.95 24
-1 -4 1 140.89 7.3
-1 -4 1 146.39 7.4
1 4 -1 130.99 7.3
1 4 -1 138.59 7.4
1 4 -1 129.69 7.1
1 4 -1 132.39 7.1
1 4 -1 152.28 7.5
2 4 -1 6.3 0.7
2 4 -1 5.9 0.8
2 4 -1 6.7 0.9
3 4 -1 37.7 2.8
3 4 -1 40.3 2.6
3 4 -1 45.1 2.8
4 4 -1 2.5 0.8
4 -5 1 1.7 1.1
4 -5 1 1.9 1
4 -5 1 1.6 0.9
-4 5 -1 1.1 1.2
-4 5 -1 2.5 0.9
3 -5 1 -0.3 0.7
3 -5 1 0.6 0.7
3 -5 1 1.7 0.9
3 -5 1 0.8 0.8
-3 5 -1 0.2 0.7
-3 5 -1 0.9 0.8
2 -5 1 9.8 1
2 -5 1 11.2 1.1
2 -5 1 10.4 1.1
2 -5 1 9.2 1.2
-2 5 -1 9.8 1.2
-2 5 -1 10.9 1
1 -5 1 81.59 4.5
1 -5 1 86.09 4.5
1 -5 1 80.99 4.8
-1 5 -1 83.19 4.5
-1 5 -1 82.79 4.4
-1 5 -1 83.19 4.7
0 -5 1 10.3 0.7
0 -5 1 9.2 1.1
0 -5 1 9.6 0.8
0 5 -1 8.7 0.7
0 5 -1 9.1 0.9
0 5 -1 13.3 1.1
-1 -5 1 0.3 0.4
-1 -5 1 -0.2 0.5
1 5 -1 0.3 0.5
1 5 -1 0.1 0.4
1 5 -1 0.4 0.4
2 5 -1 87.79 5.1
2 5 -1 101.69 5.3
2 5 -1 83.89 5
3 5 -1 0.4 0.6
3 5 -1 -1.1 0.7
3 5 -1 0.1 0.5
3 -6 1 -0.6 0.8
3 -6 1 -0.5 0.7
3 -6 1 -0.6 0.9
3 -6 1 0.3 0.8
-3 6 -1 -0.1 0.9
-3 6 -1 -0.3 0.8
2 -6 1 0.1 0.6
2 -6 1 -0.1 0.6
2 -6 1 -1 0.9
-2 6 -1 -0.1 0.6
-2 6 -1 -0.5 0.5
1 -6 1 89.89 4.7
1 -6 1 85.09 5
1 -6 1 82.99 4.7
-1 6 -1 88.49 4.8
-1 6 -1 83.89 4.6
0 -6 1 1.7 0.3
0 -6 1 0.8 0.4
0 -6 1 1 0.7
0 6 -1 1.1 0.7
0 6 -1 1.2 0.3
0 6 -1 1.2 0.3
0 6 -1 1.3 0.5
-1 -6 1 15 1.4
1 6 -1 16.1 1.6
1 6 -1 14.5 1.3
1 6 -1 15.7 1.1
2 6 -1 35.5 2.4
2 6 -1 29.1 2.2
2 6 -1 30.7 2
3 6 -1 -0.5 0.8
3 6 -1 0.9 0.6
3 6 -1 0.2 0.6
3 -7 1 4.7 1.4
3 -7 1 3.7 1
3 -7 1 4.3 1
-3 7 -1 4.2 1
-3 7 -1 5.2 1.2
2 -7 1 19.4 1.6
2 -7 1 22.8 2.3
2 -7 1 20.1 1.7
-2 7 -1 22 1.9
-2 7 -1 20.1 1.5
1 -7 1 -1.3 0.9
1 -7 1 -0.2 0.5
1 -7 1 1.5 0.5
-1 7 -1 0.5 0.5
-1 7 -1 0.3 0.6
0 7 -1 -0.3 0.5
0 7 -1 -0.2 0.4
-1 -7 1 60.29 3.7
1 7 -1 65.59 3.9
1 7 -1 53.89 3.3
1 7 -1 59.29 3.5
2 7 -1 0.3 0.5
2 7 -1 -0.1 0.6
2 7 -1 -0.6 0.8
3 7 -1 2 1
3 -8 1 -0.3 0.9
-3 8 -1 -0.6 0.9
2 -8 1 1.3 1.2
2 -8 1 0.8 0.8
2 -8 1 0.6 0.7
-2 8 -1 0.7 0.6
-2 8 -1 1.6 0.9
1 -8 1 0 1.2
1 -8 1 2.2 0.7
1 -8 1 2.4 0.6
-1 8 -1 2.3 0.6
-1 8 -1 2.2 0.8
0 -8 1 7.4 1.3
0 8 -1 5.9 0.9
0 8 -1 7.5 0.8
-1 -8 1 12.7 1.6
1 8 -1 11.1 1
1 8 -1 10.6 1.3
2 -9 1 -0.9 0.7
-2 9 -1 -0.4 0.7
1 -9 1 0.1 0.9
-1 9 -1 -1.3 0.8
-1 9 -1 -0.2 0.6
0 -9 1 13.2 1.7
0 9 -1 11.7 1.6
0 9 -1 11.3 1.1
1 10 2 14.6 1.5
1 10 2 20.9 1.7
0 10 2 9.2 1.3
0 10 2 7.1 0.9
0 -10 -2 12.5 1.6
-1 10 2 17.4 1.5
-1 10 2 17.7 1.6
-1 10 2 21.3 2
1 -10 -2 18.9 1.6
2 9 2 62.49 3.6
2 9 2 58.89 3.7
1 9 2 1.3 0.6
1 9 2 1.7 0.6
-1 -9 -2 3.5 0.9
0 9 2 -0.2 0.3
0 9 2 -0.8 0.5
0 9 2 -0.6 0.5
0 -9 -2 0.8 0.9
0 -9 -2 -0.1 0.6
-1 9 2 249.38 13.2
-1 9 2 256.87 13.4
-1 9 2 251.37 13.3
1 -9 -2 257.77 13.3
1 -9 -2 246.98 13.8
1 -9 -2 251.97 13.4
-2 9 2 -0.4 0.8
-2 9 2 0.3 0.6
-2 9 2 -1.7 1
2 -9 -2 -0.4 0.7
2 -9 -2 0.2 1.2
2 -9 -2 -0.7 0.7
3 8 2 23.4 2.1
2 8 2 0.1 0.5
2 8 2 -0.9 0.5
1 8 2 -0.4 0.4
1 8 2 -0.1 0.5
-1 -8 -2 1.3 0.8
0 8 2 513.15 26.7
0 8 2 508.85 26.6
0 8 2 506.35 26.6
0 -8 -2 527.35 27
0 -8 -2 519.45 26.7
-1 8 2 23.1 1.5
-1 8 2 18.5 1.6
-1 8 2 20.1 1.8
1 -8 -2 23.2 2.2
1 -8 -2 24.2 1.7
1 -8 -2 23.2 1.6
-2 8 2 1.5 0.5
-2 8 2 0.2 0.7
-2 8 2 0.3 0.9
2 -8 -2 1.1 0.6
2 -8 -2 1.4 0.7
2 -8 -2 3 1.2
-3 8 2 16.2 2.6
3 -8 -2 13.6 1.9
3 7 2 0.6 0.5
3 7 2 0.1 0.6
2 7 2 23.3 1.7
2 7 2 22.4 1.6
1 7 2 67.99 4
1 7 2 77.29 4.2
1 7 2 78.09 4.2
-1 -7 -2 76.09 4.3
-1 -7 -2 81.29 4.4
0 7 2 315.57 16.3
0 7 2 304.57 16.2
0 7 2 302.97 16.2
0 -7 -2 309.97 16.5
0 -7 -2 329.57 16.2
0 -7 -2 313.47 16.3
-1 7 2 22.3 1.6
-1 7 2 22.4 1.4
-1 7 2 17.6 1.4
1 -7 -2 23.5 1.5
1 -7 -2 20.5 1.8
1 -7 -2 21.6 1.5
-2 7 2 27.7 2.1
-2 7 2 24.8 1.8
2 -7 -2 26.3 1.8
2 -7 -2 23.5 1.8
2 -7 -2 24.8 2.3
-3 7 2 14.6 1.5
-3 7 2 15.5 2
3 -7 -2 14.4 1.6
3 -7 -2 13.2 1.8
3 -7 -2 15 1.5
4 6 2 0.1 1.2
3 6 2 26 2
3 6 2 27.1 2.2
3 6 2 24.2 1.8
2 6 2 10.8 1.2
2 6 2 10.4 1.1
2 6 2 12.4 1.4
1 6 2 334.67 17
1 6 2 318.47 16.9
1 6 2 300.97 16.8
1 6 2 348.07 17.1
-1 -6 -2 334.27 17
-1 -6 -2 320.27 17
0 6 2 34.5 2.2
0 6 2 34.8 2.1
0 6 2 34.5 2
0 6 2 36.5 2
0 -6 -2 36.2 2.1
0 -6 -2 35.9 2
0 -6 -2 35.4 2.3
-1 6 2 1.5 0.4
-1 6 2 0.5 0.4
-1 6 2 1.6 0.5
1 -6 -2 1.5 0.4
1 -6 -2 1 0.6
1 -6 -2 1.9 0.5
-2 6 2 170.78 8.8
-2 6 2 174.58 9
2 -6 -2 159.78 9.2
2 -6 -2 169.08 8.8
2 -6 -2 158.58 8.8
-3 6 2 1.3 0.7
-3 6 2 -0.5 0.9
3 -6 -2 -0.1 0.6
3 -6 -2 0.6 0.7
3 -6 -2 0.6 0.9
3 -6 -2 0 0.7
4 5 2 -0.2 0.8
4 5 2 0.1 0.7
3 5 2 2.7 0.7
3 5 2 4 0.8
3 5 2 2.7 0.8
2 5 2 7 0.9
2 5 2 7 0.6
2 5 2 4.4 0.7
2 5 2 6.5 0.8
-2 -5 -2 6.8 0.7
1 5 2 51.99 3
1 5 2 48.1 2.7
1 5 2 50.89 2.8
1 5 2 51.49 2.8
-1 -5 -2 52.69 2.9
-1 -5 -2 50.39 2.9
0 5 2 7.1 0.8
0 5 2 6.6 0.6
0 5 2 6.1 0.6
0 5 2 6.6 0.6
0 -5 -2 7.1 0.8
0 -5 -2 7.2 0.7
0 -5 -2 7.6 0.6
0 -5 -2 6.1 0.8
-1 5 2 210.28 10.9
-1 5 2 214.78 10.8
1 -5 -2 204.38 11.1
1 -5 -2 191.08 10.9
1 -5 -2 209.28 10.8
1 -5 -2 215.58 10.8
-2 5 2 36.7 2.2
-2 5 2 36.4 2.4
2 -5 -2 36.4 2.1
2 -5 -2 33.2 2.2
2 -5 -2 34.8 2.5
2 -5 -2 37.6 2.2
-3 5 2 2.2 1
-3 5 2 2.5 0.7
3 -5 -2 4.3 0.8
3 -5 -2 3.9 0.8
3 -5 -2 3 1
3 -5 -2 2.9 0.6
4 -5 -2 20.2 1.9
4 4 2 1.2 0.9
4 4 2 0.8 0.7
4 4 2 1 0.7
3 4 2 11.9 1.3
3 4 2 12.7 1.5
3 4 2 10.7 1.2
3 4 2 11.6 1
2 4 2 76.99 4.2
2 4 2 75.09 4.3
2 4 2 82.89 4.4
2 4 2 81.59 4.3
2 4 2 77.49 4.1
-2 -4 -2 80.79 4.1
-2 -4 -2 74.39 4.3
1 4 2 6.1 0.6
1 4 2 5.5 0.5
1 4 2 5.8 0.8
1 4 2 5.6 0.5
-1 -4 -2 5.1 0.6
-1 -4 -2 5.5 0.6
0 4 2 6.2 0.6
0 4 2 5.4 0.5
0 4 2 5.7 0.7
0 4 2 5.6 0.5
0 -4 -2 6.1 0.5
0 -4 -2 5.8 0.5
0 -4 -2 6.4 0.7
0 -4 -2 5 0.7
-1 4 2 692.53 34.2
-1 4 2 678.53 34.2
1 -4 -2 680.23 34.1
1 -4 -2 624.74 34.2
1 -4 -2 643.14 34.4
1 -4 -2 666.73 34.2
-2 4 2 25.1 1.5
-2 4 2 22 1.7
2 -4 -2 24.9 1.5
2 -4 -2 23.6 1.8
2 -4 -2 25 1.4
2 -4 -2 19.8 1.4
2 -4 -2 23.5 1.5
-3 4 2 3.7 0.7
-3 4 2 3.9 1
3 -4 -2 5.3 0.8
3 -4 -2 5.1 0.7
3 -4 -2 3.6 0.9
3 -4 -2 4.6 0.8
-4 4 2 20.5 2.3
-4 4 2 21 1.8
4 -4 -2 24 1.9
4 -4 -2 23.2 1.9
4 -4 -2 24 2
4 3 2 0.2 0.8
4 3 2 0.2 0.6
4 3 2 0.8 0.7
3 3 2 0 0.5
3 3 2 -0.8 0.6
3 3 2 0.8 0.7
2 3 2 28.5 1.4
2 3 2 23.9 1.6
2 3 2 24.3 1.7
2 3 2 26.3 1.4
2 3 2 24.6 1.5
2 3 2 26.1 1.8
1 3 2 1.3 0.4
1 3 2 1 0.3
1 3 2 1 0.3
1 3 2 1.4 0.2
-1 -3 -2 0.8 0.3
-1 -3 -2 1.1 0.3
0 3 2 765.82 39.2
0 3 2 765.42 39
0 3 2 719.23 39
0 3 2 745.63 39.2
0 -3 -2 796.82 39
0 -3 -2 710.23 39
0 -3 -2 803.22 39.2
0 -3 -2 781.32 39.1
0 -3 -2 749.23 39.1
-1 3 2 4.3 0.6
-1 3 2 4.8 0.5
1 -3 -2 4.6 0.7
1 -3 -2 5.1 0.5
1 -3 -2 5.6 0.5
1 -3 -2 5.2 0.4
1 -3 -2 5 0.5
-2 3 2 63.19 3.7
2 -3 -2 69.69 3.6
2 -3 -2 65.09 3.5
2 -3 -2 58.19 3.5
2 -3 -2 67.29 3.7
2 -3 -2 66.99 3.6
-3 3 2 141.19 8.2
3 -3 -2 156.48 8
3 -3 -2 154.58 8.1
3 -3 -2 149.19 8.1
3 -3 -2 147.09 7.9
-4 3 2 -1.3 0.9
4 -3 -2 -0.4 0.8
4 -3 -2 0.5 0.7
4 -3 -2 0.8 0.7
4 2 2 0 0.7
4 2 2 -0.2 0.7
4 2 2 -0.5 0.6
4 2 2 -0.1 0.7
-4 -2 -2 -0.6 0.7
3 2 2 53.39 3.2
3 2 2 48.7 3.1
3 2 2 54.19 3.2
3 2 2 50.29 3
2 2 2 1.1 0.4
2 2 2 0.6 0.2
2 2 2 1.1 0.2
2 2 2 0.7 0.4
2 2 2 0.8 0.4
2 2 2 0.2 0.5
2 2 2 0.8 0.3
-2 -2 -2 0.7 0.4
1 2 2 4.6 0.5
1 2 2 3.6 0.4
1 2 2 3.8 0.5
1 2 2 4.3 0.4
1 2 2 4.4 0.4
1 2 2 4.7 0.5
1 2 2 3.6 0.4
-1 -2 -2 5.1 0.5
-1 -2 -2 4.3 0.4
-1 -2 -2 3.5 0.5
0 2 2 4.6 0.3
0 2 2 4.5 0.3
0 2 2 4.3 0.3
0 2 2 4.2 0.4
0 -2 -2 4 0.3
0 -2 -2 4.5 0.3
0 -2 -2 4.8 0.4
0 -2 -2 4.9 0.5
-1 2 2 50.19 2.9
-1 2 2 50.89 2.8
1 -2 -2 52.29 2.9
1 -2 -2 54.29 2.9
1 -2 -2 54.29 2.8
1 -2 -2 53.39 2.8
-2 2 2 158.08 8.8
2 -2 -2 149.09 8.5
2 -2 -2 178.48 8.7
2 -2 -2 167.88 8.6
2 -2 -2 159.78 8.5
2 -2 -2 173.98 8.6
2 -2 -2 163.28 8.8
-3 2 2 59.09 3.9
3 -2 -2 63.59 3.7
3 -2 -2 68.99 3.6
3 -2 -2 66.59 3.7
3 -2 -2 61.69 3.5
3 -2 -2 61.09 3.9
-4 2 2 2.5 1.1
4 -2 -2 2.6 1
4 -2 -2 4.6 0.8
4 -2 -2 1.9 1.2
4 -2 -2 4 0.8
4 1 2 12.4 1.6
4 1 2 15.3 1.7
4 1 2 11.6 1.4
4 1 2 11 1.2
-4 -1 -2 13.7 1.7
3 1 2 12.8 1.2
3 1 2 11.7 1.3
3 1 2 14.3 1.3
3 1 2 14.3 1.1
-3 -1 -2 12.2 1.3
2 1 2 107.19 5.9
2 1 2 109.99 5.7
2 1 2 104.79 5.9
2 1 2 108.89 5.8
2 1 2 106.99 5.8
-2 -1 -2 104.79 5.9
-2 -1 -2 119.59 5.7
1 1 2 73.79 4.2
1 1 2 79.89 4.3
1 1 2 77.89 4.2
1 1 2 83.49 4.2
1 1 2 82.49 4.2
1 1 2 81.19 4.2
1 1 2 75.39 4.2
-1 -1 -2 81.09 4.3
-1 -1 -2 86.69 4.2
-1 -1 -2 81.19 4.2
-1 -1 -2 72.49 4.2
0 1 2 306.47 14.9
0 1 2 329.17 15
0 1 2 267.77 14.9
0 1 2 270.97 14.9
0 1 2 270.67 14.9
0 1 2 299.57 15
0 -1 -2 295.57 15
0 -1 -2 288.97 14.9
0 -1 -2 314.17 15
0 -1 -2 297.17 15.5
0 -1 -2 283.27 14.9
0 -1 -2 267.27 14.9
1 -1 -2 101.49 5.1
1 -1 -2 92.19 5.1
1 -1 -2 99.59 5.2
1 -1 -2 96.99 5.2
-2 1 2 351.06 17.3
-2 1 2 311.77 17.5
2 -1 -2 345.17 17.4
2 -1 -2 317.77 17.2
2 -1 -2 352.06 17.3
2 -1 -2 332.87 17.5
2 -1 -2 320.27 17.2
2 -1 -2 345.87 17.3
-3 1 2 6.3 1
3 -1 -2 5.7 1
3 -1 -2 7.3 0.9
3 -1 -2 7.2 0.8
3 -1 -2 6.9 0.9
-4 1 2 18.7 2.1
4 -1 -2 20.9 1.8
4 -1 -2 21.9 2.3
4 -1 -2 16.3 1.6
4 0 2 50.59 3.4
4 0 2 52.89 3.3
4 0 2 48.5 3.2
4 0 2 49.8 3.1
-4 0 -2 47.1 3.3
3 0 2 21.5 1.5
3 0 2 20.4 1.6
3 0 2 17.2 1.6
3 0 2 21.9 1.5
3 0 2 21.3 1.6
-3 0 -2 18.3 1.6
2 0 2 10.8 1
2 0 2 11.3 1
2 0 2 11.6 1
2 0 2 12.3 1
2 0 2 13.6 1
2 0 2 13.3 0.9
-2 0 -2 11.1 1
-2 0 -2 11.5 1
1 0 2 49.4 2.7
1 0 2 49.3 2.6
1 0 2 52.49 2.6
1 0 2 47.1 2.6
1 0 2 52.39 2.6
1 0 2 43.9 2.6
-1 0 -2 42.8 2.6
-1 0 -2 51.19 2.6
-1 0 -2 46 2.6
-1 0 -2 47.1 2.6
-1 0 -2 45.3 2.6
-1 0 -2 51.89 2.7
0 0 2 1042.2 56.59
0 0 2 1136.89 56.49
0 0 2 1035 56.59
0 0 2 1234.88 56.99
0 0 -2 1182.38 56.59
0 0 -2 1233.18 56.79
0 0 -2 1023 56.59
0 0 -2 1005.6 56.69
0 0 -2 1027.5 56.49
-1 0 2 8.1 0.5
-1 0 2 8.7 0.6
-1 0 2 8.9 0.7
1 0 -2 9.3 0.6
1 0 -2 9 0.5
1 0 -2 8.3 0.5
1 0 -2 7.5 0.8
1 0 -2 9 0.6
-2 0 2 131.79 6.7
2 0 -2 132.39 6.8
2 0 -2 117.89 6.6
2 0 -2 129.19 6.6
2 0 -2 124.19 6.9
3 0 -2 1.9 0.8
3 0 -2 2.6 0.5
3 0 -2 1.6 0.5
3 0 -2 2.6 0.7
-4 0 2 180.28 10.2
4 0 -2 174.98 9.8
4 0 -2 187.78 10.2
4 0 -2 189.08 9.9
4 -1 2 4.7 0.9
4 -1 2 4.9 1
4 -1 2 3.9 0.9
-4 1 -2 3.9 1
3 -1 2 43.3 2.6
3 -1 2 43.6 2.6
3 -1 2 40.9 2.7
3 -1 2 45.1 2.6
-3 1 -2 44 2.8
2 -1 2 469.45 26.6
2 -1 2 527.45 26.5
2 -1 2 525.85 26.5
2 -1 2 535.25 26.5
2 -1 2 524.15 26.5
-2 1 -2 497.05 26.5
-2 1 -2 510.85 26.5
1 -1 2 265.97 13.4
1 -1 2 245.58 13.2
1 -1 2 266.47 13.3
1 -1 2 236.98 13.3
1 -1 2 257.67 13.3
-1 1 -2 256.97 13.3
-1 1 -2 266.37 13.4
0 -1 2 1068.69 52.79
0 -1 2 985.4 51.79
0 -1 2 979.6 51.99
0 -1 2 1052.29 51.99
0 -1 2 997 51.69
0 1 -2 1012.3 51.99
0 1 -2 969.4 51.79
-1 -1 2 260.17 12.4
-1 -1 2 208.88 12.4
-1 -1 2 248.78 12.6
1 1 -2 253.37 12.4
1 1 -2 226.28 12.5
1 1 -2 237.88 12.6
1 1 -2 255.77 12.5
1 1 -2 247.18 12.6
-2 -1 2 47.8 2.6
2 1 -2 48.1 2.5
2 1 -2 45.9 2.6
2 1 -2 45.5 2.7
2 1 -2 48.2 2.6
2 1 -2 43.1 2.8
3 1 -2 6.6 1
3 1 -2 6.7 0.9
3 1 -2 7.1 1
4 1 -2 23.8 2
4 1 -2 22.1 1.9
4 1 -2 25.6 2.4
4 -2 2 0.1 0.8
4 -2 2 1.8 0.8
4 -2 2 2 0.9
-4 2 -2 0.5 0.9
3 -2 2 56.89 3.2
3 -2 2 52.39 3.2
3 -2 2 56.29 3.3
3 -2 2 52.49 3.2
-3 2 -2 51.29 3.3
2 -2 2 875.41 45
2 -2 2 876.11 45.1
2 -2 2 788.52 45.1
2 -2 2 890.11 45.2
2 -2 2 917.01 45.1
-2 2 -2 882.11 45.1
-2 2 -2 897.91 45.1
1 -2 2 116.09 6
1 -2 2 95.09 6.1
1 -2 2 114.09 5.8
1 -2 2 111.79 5.9
1 -2 2 114.49 5.9
-1 2 -2 116.19 5.9
-1 2 -2 118.39 6
-1 2 -2 109.29 5.8
0 -2 2 175.98 9.3
0 -2 2 186.88 9.5
0 -2 2 157.18 9.2
0 -2 2 186.58 9.3
0 2 -2 188.78 9.3
0 2 -2 183.08 9.3
0 2 -2 172.48 9.3
0 2 -2 179.28 9.4
0 2 -2 189.68 9.4
-1 -2 2 -0.1 0.3
-1 -2 2 0 0.2
1 2 -2 -0.3 0.3
1 2 -2 -0.1 0.4
1 2 -2 -0.4 0.3
1 2 -2 0.2 0.3
-2 -2 2 110.99 5.9
2 2 -2 117.19 5.8
2 2 -2 109.49 6
2 2 -2 109.79 6
2 2 -2 108.79 6.1
3 2 -2 26.2 1.8
3 2 -2 26.6 2.1
3 2 -2 22.7 1.9
4 2 -2 2.6 1.1
4 2 -2 1.5 1.4
4 2 -2 1.2 0.9
4 -3 2 1.8 0.9
4 -3 2 -0.4 0.7
4 -3 2 0.5 0.8
-4 3 -2 0.1 0.9
3 -3 2 837.62 45.2
3 -3 2 925.41 45.2
3 -3 2 866.01 45.2
3 -3 2 880.21 45.2
-3 3 -2 865.71 45.3
2 -3 2 0.9 0.5
2 -3 2 1.1 0.5
2 -3 2 0.6 0.4
2 -3 2 0.4 0.4
2 -3 2 0 0.6
-2 3 -2 0.7 0.3
-2 3 -2 -0.2 0.5
-2 3 -2 0.1 0.4
1 -3 2 65.09 3.4
1 -3 2 59.19 3.4
1 -3 2 61.79 3.6
-1 3 -2 59.69 3.4
-1 3 -2 61.39 3.3
-1 3 -2 63.39 3.5
0 -3 2 598.94 32.5
0 -3 2 654.13 32.6
0 -3 2 649.54 32.7
0 3 -2 644.94 32.6
0 3 -2 635.34 32.5
0 3 -2 574.74 32.5
0 3 -2 673.93 32.7
-1 -3 2 39 2.3
-1 -3 2 38.1 2.2
1 3 -2 37.9 2.3
1 3 -2 41.3 2.4
1 3 -2 42.4 2.2
1 3 -2 35.3 2.2
-2 -3 2 4.2 0.6
2 3 -2 4 0.7
2 3 -2 4.3 0.6
2 3 -2 5.2 0.7
3 3 -2 0.6 0.6
3 3 -2 0.2 0.6
3 3 -2 0.2 0.7
4 3 -2 3.3 0.9
4 -4 2 114.79 6.5
4 -4 2 120.49 6.5
4 -4 2 124.09 6.6
-4 4 -2 102.69 6.4
-4 4 -2 113.49 6.7
3 -4 2 111.59 5.9
3 -4 2 99.89 6.1
3 -4 2 110.29 5.8
3 -4 2 100.79 5.9
-3 4 -2 108.19 6
-3 4 -2 104.99 5.8
2 -4 2 12.8 1
2 -4 2 12.5 1.1
2 -4 2 9.1 1.1
2 -4 2 9.5 1.2
-2 4 -2 10.9 1.2
-2 4 -2 12.2 0.9
1 -4 2 467.05 23.2
1 -4 2 450.45 23.4
1 -4 2 427.26 23.2
-1 4 -2 438.16 23.2
-1 4 -2 444.06 23.1
-1 4 -2 465.85 23.4
0 -4 2 26.3 1.8
0 -4 2 27.6 1.6
0 -4 2 25.2 1.4
0 4 -2 24.8 1.6
0 4 -2 24.7 1.5
0 4 -2 27.6 1.8
-1 -4 2 0.4 0.5
-1 -4 2 0.9 0.3
1 4 -2 0.5 0.5
1 4 -2 0.3 0.3
1 4 -2 1.2 0.5
2 4 -2 0.3 0.6
2 4 -2 0.5 0.6
2 4 -2 0.3 0.4
3 4 -2 2.1 0.7
3 4 -2 2.8 0.8
3 4 -2 2.4 0.8
4 -5 2 116.49 6.5
4 -5 2 122.19 6.6
-4 5 -2 115.89 7.2
-4 5 -2 107.09 6.4
3 -5 2 24.3 1.8
3 -5 2 24.5 2
3 -5 2 21.7 1.9
3 -5 2 17.7 2.1
-3 5 -2 25 2.1
-3 5 -2 24 1.7
2 -5 2 18.6 1.4
2 -5 2 16.2 1.8
2 -5 2 15.7 1.4
-2 5 -2 16.7 1.5
-2 5 -2 20.4 1.3
1 -5 2 183.58 9.3
1 -5 2 180.58 9.6
1 -5 2 172.88 9.2
-1 5 -2 173.28 9.3
-1 5 -2 178.78 9.5
-1 5 -2 168.48 9.2
0 -5 2 84.39 4.5
0 -5 2 85.89 4.6
0 -5 2 84.79 4.9
0 5 -2 83.39 4.5
0 5 -2 92.69 4.9
0 5 -2 79.59 4.6
-1 -5 2 5.1 0.9
1 5 -2 4.8 0.9
1 5 -2 6.8 0.7
1 5 -2 5.9 0.8
2 5 -2 14 1.5
2 5 -2 15.7 1.2
2 5 -2 17.5 1.7
3 5 -2 2.2 0.9
3 5 -2 2.9 0.8
3 5 -2 2.3 0.7
3 -6 2 -1 0.8
3 -6 2 0.1 0.8
3 -6 2 0 0.8
3 -6 2 -1 1
-3 6 -2 -0.7 0.9
-3 6 -2 0.3 0.7
2 -6 2 92.69 5.8
2 -6 2 94.09 5.4
2 -6 2 99.29 5.4
-2 6 -2 98.69 5.5
-2 6 -2 99.89 5.3
1 -6 2 6.6 0.8
1 -6 2 9.4 0.9
1 -6 2 8.1 1.1
-1 6 -2 7.4 1.1
-1 6 -2 7.4 0.8
0 -6 2 -2.1 0.8
0 6 -2 -0.4 0.3
0 6 -2 -0.8 0.7
0 6 -2 -0.6 0.4
-1 -6 2 92.79 5.2
1 6 -2 98.19 5.3
1 6 -2 84.39 4.9
1 6 -2 87.79 5.1
2 6 -2 2.9 0.8
2 6 -2 2.4 0.9
2 6 -2 2.5 0.6
3 6 -2 2.6 1
3 -7 2 5.1 1.5
3 -7 2 4.9 1
3 -7 2 3.4 1.1
-3 7 -2 4.4 0.9
-3 7 -2 4.8 1.2
2 -7 2 17.2 1.5
2 -7 2 16.4 1.9
2 -7 2 16.3 1.7
-2 7 -2 18.1 1.7
-2 7 -2 17.4 1.3
1 -7 2 5.2 0.6
1 -7 2 3.4 0.8
1 -7 2 4.7 1.2
-1 7 -2 4.9 0.8
-1 7 -2 5.2 0.6
0 -7 2 49.7 3.3
0 7 -2 45.9 2.7
0 7 -2 49.5 3
-1 -7 2 8.3 1.2
1 7 -2 7.2 1.2
1 7 -2 7.7 1
1 7 -2 6.8 0.9
2 7 -2 -0.1 0.8
2 7 -2 0.9 0.7
3 -8 2 7.3 1.3
-3 8 -2 9.5 1.2
2 -8 2 -2.7 1.2
2 -8 2 -0.6 0.7
-2 8 -2 0.1 0.9
-2 8 -2 -0.8 0.6
1 -8 2 -0.3 1.1
-1 8 -2 0.5 0.5
-1 8 -2 0.7 0.8
0 -8 2 58.29 3.9
0 8 -2 56.39 3.5
1 8 -2 0.9 0.7
0 -9 2 -0.4 1.2
1 10 3 11.5 1.3
0 10 3 1.5 0.6
0 10 3 1.8 0.6
0 -10 -3 3.7 1.1
0 -10 -3 1.9 1.1
-1 10 3 -0.7 0.7
-1 10 3 -0.5 1.1
-1 10 3 -0.2 0.6
1 -10 -3 -0.7 0.7
1 -10 -3 -1.1 0.6
2 9 3 1.6 0.5
2 9 3 1.9 0.7
1 9 3 16.6 1.4
1 9 3 17.4 1.5
-1 -9 -3 18.8 1.7
0 9 3 12.6 1.1
0 9 3 14.3 1.3
0 9 3 15.5 1.2
0 -9 -3 17.1 1.8
0 -9 -3 12 1.4
-1 9 3 1.8 0.6
-1 9 3 2.4 0.8
-1 9 3 3.1 0.7
1 -9 -3 1.5 0.6
1 -9 -3 2.4 0.7
1 -9 -3 1.5 1.2
-2 9 3 3.2 0.9
-2 9 3 2.5 1.1
-2 9 3 3.2 0.8
2 -9 -3 1.7 1.3
2 -9 -3 2.3 0.8
2 -9 -3 2.7 0.9
2 8 3 12.5 1.2
2 8 3 10.9 1.1
1 8 3 2.6 0.6
1 8 3 1.4 0.5
1 8 3 1.9 0.4
-1 -8 -3 2.8 0.7
-1 -8 -3 3 0.8
0 8 3 154.18 8
0 8 3 151.28 7.9
0 8 3 143.49 7.9
0 -8 -3 153.48 8.1
0 -8 -3 146.69 8.3
-1 8 3 4 0.8
-1 8 3 5.5 0.8
-1 8 3 6.1 0.7
1 -8 -3 5.2 0.7
1 -8 -3 6 0.8
1 -8 -3 5 1.2
-2 8 3 1.1 0.8
-2 8 3 1.1 0.7
-2 8 3 1.2 0.6
2 -8 -3 2.1 1.1
2 -8 -3 1.6 0.6
2 -8 -3 1.1 0.6
-3 8 3 1 1.6
3 -8 -3 2.9 1.4
3 7 3 1.9 0.6
3 7 3 2.2 0.6
2 7 3 3.5 0.6
2 7 3 3.8 0.6
1 7 3 672.63 37.4
1 7 3 748.23 37.5
1 7 3 720.63 37.5
-1 -7 -3 717.63 37.6
-1 -7 -3 777.52 37.7
0 7 3 9.3 0.8
0 7 3 7.8 0.9
0 7 3 7.4 0.8
0 -7 -3 8.7 0.9
0 -7 -3 8.4 1.1
-1 7 3 14.3 1.1
-1 7 3 11.5 1.1
-1 7 3 16.5 1.3
1 -7 -3 14.4 1.2
1 -7 -3 15.4 1.2
1 -7 -3 12.9 1.6
-2 7 3 22.2 1.6
-2 7 3 25.1 2
-2 7 3 23.3 1.7
2 -7 -3 21.4 2
2 -7 -3 22.6 1.7
2 -7 -3 23.4 1.6
-3 7 3 1 0.8
-3 7 3 0.1 1
3 -7 -3 0.1 0.6
3 -7 -3 -0.3 1
3 -7 -3 0.2 0.6
4 6 3 1.1 0.7
3 6 3 1.7 0.6
3 6 3 2.5 1.1
3 6 3 2.4 0.7
2 6 3 340.87 16.7
2 6 3 313.17 16.6
2 6 3 299.67 16.4
2 6 3 313.57 16.5
1 6 3 179.48 9.6
1 6 3 180.88 9.7
1 6 3 196.68 9.9
1 6 3 183.88 9.7
-1 -6 -3 185.38 9.8
-1 -6 -3 186.18 9.8
0 6 3 8.4 0.7
0 6 3 6.9 0.7
0 6 3 7.1 0.7
0 -6 -3 7.7 0.9
0 -6 -3 7.4 0.8
-1 6 3 138.49 7.1
-1 6 3 140.29 7.2
-1 6 3 134.79 7.1
1 -6 -3 128.89 7.4
1 -6 -3 137.79 7.2
1 -6 -3 129.39 7.1
-2 6 3 0.9 0.7
-2 6 3 1.1 0.6
2 -6 -3 1.7 0.7
2 -6 -3 2.8 0.9
2 -6 -3 1.5 0.5
-3 6 3 1 1
-3 6 3 2.1 0.8
3 -6 -3 2.7 0.8
3 -6 -3 3.7 0.9
3 -6 -3 3.6 1.1
3 -6 -3 3.4 0.7
4 5 3 12.3 1.5
4 5 3 15.3 1.9
4 5 3 13.9 2.1
3 5 3 1.7 0.6
3 5 3 3 0.7
3 5 3 2.3 0.9
3 5 3 2.2 0.5
2 5 3 443.06 21.2
2 5 3 375.06 21
2 5 3 399.16 20.9
2 5 3 397.96 20.9
2 5 3 408.76 21
-2 -5 -3 390.86 21.1
-2 -5 -3 420.76 20.9
1 5 3 109.09 5.8
1 5 3 103.69 5.7
1 5 3 109.69 5.8
1 5 3 111.29 5.9
-1 -5 -3 104.29 5.8
-1 -5 -3 113.79 5.9
0 5 3 9.6 0.7
0 5 3 11.2 0.8
0 5 3 10.9 0.8
0 5 3 11.7 0.9
0 -5 -3 10.7 1.1
0 -5 -3 10.6 1
0 -5 -3 10.5 0.8
-1 5 3 179.38 9.3
-1 5 3 185.98 9.4
-1 5 3 180.48 9.3
1 -5 -3 181.28 9.3
1 -5 -3 173.78 9.6
1 -5 -3 180.58 9.3
1 -5 -3 166.38 9.4
-2 5 3 2.4 0.5
-2 5 3 1.1 0.6
2 -5 -3 2.3 0.6
2 -5 -3 2 0.4
2 -5 -3 1.8 0.8
2 -5 -3 1.8 0.6
-3 5 3 3.8 0.8
-3 5 3 3.1 1.1
3 -5 -3 4.1 0.7
3 -5 -3 4.3 0.9
3 -5 -3 4.3 0.8
3 -5 -3 3.9 1
4 -5 -3 1.4 1
4 4 3 1.7 1
4 4 3 1.9 0.7
4 4 3 1.9 0.7
3 4 3 94.29 4.9
3 4 3 78.79 4.5
3 4 3 81.59 4.7
3 4 3 77.99 4.7
2 4 3 0 0.5
2 4 3 0.3 0.3
2 4 3 0.2 0.4
2 4 3 0.2 0.3
2 4 3 0.4 0.3
-2 -4 -3 0.3 0.3
-2 -4 -3 0.2 0.4
1 4 3 22.2 1.3
1 4 3 22.3 1.5
1 4 3 22.4 1.3
1 4 3 21.3 1.3
-1 -4 -3 20.2 1.4
-1 -4 -3 23.1 1.4
0 4 3 576.74 30.3
0 4 3 587.44 30.3
0 4 3 570.84 30.4
0 4 3 586.04 30.3
0 -4 -3 617.44 30.5
0 -4 -3 604.84 30.4
0 -4 -3 588.34 30.5
-1 4 3 -0.4 0.3
-1 4 3 0.5 0.3
-1 4 3 0.5 0.3
1 -4 -3 -0.4 0.3
1 -4 -3 0.4 0.3
1 -4 -3 -0.8 0.4
1 -4 -3 0.2 0.2
-2 4 3 3.4 0.5
-2 4 3 2.6 0.7
2 -4 -3 3.1 0.4
2 -4 -3 3.1 0.7
2 -4 -3 3.4 0.4
2 -4 -3 3.9 0.6
2 -4 -3 3.9 0.6
-3 4 3 42.9 3.2
-3 4 3 48.8 2.9
3 -4 -3 47.3 3.1
3 -4 -3 52.19 3
3 -4 -3 48.9 2.9
3 -4 -3 47.6 2.8
-4 4 3 2.8 1
-4 4 3 1.2 1.4
4 -4 -3 1.2 0.9
4 -4 -3 3.1 1.2
4 -4 -3 3.4 0.9
4 3 3 1.5 0.7
4 3 3 2.3 0.9
4 3 3 1.3 0.7
4 3 3 0.7 0.5
-4 -3 -3 0.5 0.8
3 3 3 39.9 2.7
3 3 3 37.2 2.4
3 3 3 45.2 2.7
3 3 3 41.6 2.6
2 3 3 0.4 0.2
2 3 3 0.6 0.3
2 3 3 0.3 0.3
2 3 3 0.2 0.3
2 3 3 -0.2 0.5
-2 -3 -3 0.3 0.4
1 3 3 79.79 4.2
1 3 3 74.89 4.1
1 3 3 78.99 4.1
1 3 3 76.39 4.1
1 3 3 79.19 4.1
-1 -3 -3 77.69 4.1
-1 -3 -3 70.09 4.1
0 3 3 796.72 38.3
0 3 3 699.93 38.1
0 3 3 772.52 38.2
0 -3 -3 778.92 38.3
0 -3 -3 760.02 38.2
0 -3 -3 741.03 38.2
0 -3 -3 653.03 38.1
-1 3 3 13.7 1.1
-1 3 3 15.1 0.9
1 -3 -3 13.8 0.8
1 -3 -3 16 1
1 -3 -3 14.4 1
1 -3 -3 15.7 0.8
1 -3 -3 14.3 1.2
-2 3 3 75.59 4.1
-2 3 3 74.49 4.3
2 -3 -3 77.89 4.1
2 -3 -3 75.39 4.2
2 -3 -3 75.29 4.3
2 -3 -3 65.19 3.9
2 -3 -3 73.19 3.9
2 -3 -3 83.89 4.1
-3 3 3 2.4 0.9
-3 3 3 2.8 0.6
3 -3 -3 3.4 0.7
3 -3 -3 4.6 0.8
3 -3 -3 1.8 0.9
3 -3 -3 2.5 0.5
3 -3 -3 3.7 0.7
-4 3 3 0.7 0.7
-4 3 3 -0.2 1
4 -3 -3 -2 1
4 -3 -3 -0.2 0.8
4 -3 -3 -1.5 0.6
4 -3 -3 -2.3 0.9
4 2 3 4.3 0.8
4 2 3 6.2 1
4 2 3 4 0.9
4 2 3 3.6 0.9
-4 -2 -3 4.1 1
3 2 3 3.4 0.8
3 2 3 3.3 0.6
3 2 3 3.2 0.7
3 2 3 2.2 0.7
2 2 3 2.4 0.4
2 2 3 3.6 0.5
2 2 3 2.8 0.5
2 2 3 3.1 0.6
2 2 3 3.4 0.4
-2 -2 -3 3.9 0.6
1 2 3 1296.67 69.19
1 2 3 1409.66 69.39
1 2 3 1326.97 69.19
1 2 3 1318.87 69.19
1 2 3 1347.07 69.19
-1 -2 -3 1307.87 69.19
-1 -2 -3 1554.24 69.19
-1 -2 -3 1224.08 69.19
0 2 3 34.2 2
0 2 3 35.8 2
0 2 3 39.5 2
0 2 3 39.9 2.2
0 2 3 40.2 2
0 2 3 37.3 2
0 -2 -3 35.4 2
0 -2 -3 38.5 2
0 -2 -3 39 2.2
-1 2 3 80.69 4.2
-1 2 3 74.19 4.3
1 -2 -3 81.49 4.2
1 -2 -3 74.99 4.3
1 -2 -3 76.59 4.3
1 -2 -3 85.69 4.2
-2 2 3 220.08 12.6
2 -2 -3 237.38 12.5
2 -2 -3 239.88 12.7
2 -2 -3 251.87 12.4
2 -2 -3 246.28 12.5
3 -2 -3 -0.2 0.4
3 -2 -3 -0.4 0.6
3 -2 -3 -2 0.8
3 -2 -3 -0.3 0.4
-4 2 3 -0.6 1
4 -2 -3 -0.4 0.6
4 -2 -3 0.2 1
4 -2 -3 -0.9 0.9
4 1 3 7 1.1
4 1 3 7.5 1.1
4 1 3 5.7 0.9
4 1 3 6.2 1
-4 -1 -3 6.9 1.1
3 1 3 3.5 0.7
3 1 3 4.8 0.7
3 1 3 4.6 0.8
3 1 3 4 0.7
-3 -1 -3 4.8 0.7
2 1 3 71.49 3.9
2 1 3 71.39 3.9
2 1 3 75.09 4
2 1 3 70.79 4
2 1 3 74.59 3.9
-2 -1 -3 67.69 3.9
-2 -1 -3 73.29 4
1 1 3 1.9 0.4
1 1 3 1.5 0.4
1 1 3 1.5 0.2
1 1 3 1.6 0.3
-1 -1 -3 1.5 0.2
-1 -1 -3 1.3 0.2
-1 -1 -3 1.9 0.4
-1 -1 -3 1.8 0.3
0 1 3 540.45 26.8
0 1 3 529.55 26.8
0 1 3 523.15 26.8
0 1 3 526.25 26.9
0 -1 -3 533.65 26.8
0 -1 -3 518.55 26.9
0 -1 -3 600.44 26.8
0 -1 -3 455.35 26.8
0 -1 -3 467.35 26.8
-1 1 3 664.63 33.9
-1 1 3 669.93 33.8
1 -1 -3 649.43 33.9
1 -1 -3 658.13 33.9
1 -1 -3 634.74 33.8
1 -1 -3 668.53 33.8
-2 1 3 64.59 3.5
2 -1 -3 68.79 3.4
2 -1 -3 64.99 3.6
2 -1 -3 64.89 3.5
2 -1 -3 64.69 3.7
2 -1 -3 59.19 3.3
2 -1 -3 61.69 3.3
-3 1 3 30.8 2.4
3 -1 -3 36.1 2.2
3 -1 -3 30 1.9
3 -1 -3 29.1 2.5
3 -1 -3 35.3 1.9
-4 1 3 127.29 7.5
4 -1 -3 121.29 7
4 -1 -3 137.89 7.3
4 -1 -3 134.89 7.6
4 0 3 -0.5 0.8
4 0 3 0.7 0.7
4 0 3 -0.2 0.7
4 0 3 -0.5 0.7
-4 0 -3 -0.7 0.7
3 0 3 4.3 0.6
3 0 3 4.6 0.8
3 0 3 5.5 0.9
3 0 3 4.5 0.7
3 0 3 4.8 0.7
-3 0 -3 4.3 0.8
2 0 3 1.8 0.5
2 0 3 1.6 0.4
2 0 3 2.3 0.5
2 0 3 2 0.5
-2 0 -3 1.4 0.5
-2 0 -3 2.2 0.5
1 0 3 3.2 0.4
1 0 3 3.2 0.4
1 0 3 2.4 0.4
1 0 3 3.4 0.4
1 0 3 3.2 0.5
-1 0 -3 3.7 0.4
-1 0 -3 3.9 0.4
-1 0 -3 3.1 0.4
-1 0 -3 3.4 0.5
-1 0 -3 3.4 0.4
0 0 3 172.58 8.8
0 0 3 165.18 8.9
0 0 3 169.48 8.7
0 0 3 167.88 8.8
0 0 -3 163.28 8.8
0 0 -3 181.48 8.8
0 0 -3 162.38 8.8
0 0 -3 173.58 8.8
-1 0 3 790.82 48.1
-1 0 3 978.7 48.2
-1 0 3 1040.8 49.1
1 0 -3 948.31 48.2
1 0 -3 854.21 48.1
1 0 -3 965.6 48.2
1 0 -3 947.31 48.1
1 0 -3 980.3 48.1
-2 0 3 8.7 0.8
2 0 -3 9.7 0.6
2 0 -3 8.4 0.9
2 0 -3 8.5 0.6
2 0 -3 8.4 1.1
2 0 -3 7.6 0.7
3 0 -3 110.59 6.4
3 0 -3 128.39 6.6
3 0 -3 122.79 6.9
-4 0 3 100.69 6.1
4 0 -3 103.69 5.8
4 0 -3 98.69 5.7
4 0 -3 102.69 6.2
4 -1 3 3.7 0.9
4 -1 3 3.6 0.9
4 -1 3 3.8 1
-4 1 -3 3.4 1
3 -1 3 0.2 0.7
3 -1 3 -0.2 0.5
3 -1 3 -0.5 0.6
3 -1 3 -0.3 0.5
-3 1 -3 0.2 0.6
2 -1 3 2.7 0.5
2 -1 3 3.8 0.6
2 -1 3 3.3 0.6
2 -1 3 3.5 0.6
-2 1 -3 3.5 0.5
-2 1 -3 3.4 0.6
1 -1 3 131.99 6.8
1 -1 3 115.39 6.7
1 -1 3 135.69 6.9
1 -1 3 135.29 6.8
-1 1 -3 133.09 6.7
-1 1 -3 113.89 6.7
-1 1 -3 135.49 6.9
0 -1 3 579.64 30.2
0 -1 3 578.74 30.2
0 -1 3 585.14 30.3
0 1 -3 619.14 30.2
0 1 -3 563.64 30.3
0 1 -3 599.44 30.2
0 1 -3 585.34 30.2
-1 -1 3 104.99 5.3
-1 -1 3 87.09 5.1
-1 -1 3 112.49 5.1
1 1 -3 90.89 5.2
1 1 -3 98.89 5.3
1 1 -3 95.89 5.4
1 1 -3 106.29 5.2
-2 -1 3 22.3 1.5
-2 -1 3 24.5 1.3
2 1 -3 21.3 1.5
2 1 -3 23.3 1.4
2 1 -3 23.9 1.3
2 1 -3 22.1 1.7
2 1 -3 22.1 1.5
3 1 -3 556.04 27.5
3 1 -3 538.25 27.8
3 1 -3 494.45 27.4
4 1 -3 2.6 1
4 -2 3 2 0.9
4 -2 3 2.5 0.9
4 -2 3 2.7 0.9
-4 2 -3 1.7 0.9
3 -2 3 96.79 5.6
3 -2 3 106.89 5.6
3 -2 3 100.99 5.5
3 -2 3 92.09 5.6
-3 2 -3 102.89 5.6
2 -2 3 140.99 7.7
2 -2 3 149.99 7.8
2 -2 3 144.59 7.8
2 -2 3 148.99 7.9
-2 2 -3 144.79 7.9
-2 2 -3 152.18 7.8
1 -2 3 72.19 3.8
1 -2 3 74.79 4
1 -2 3 66.29 3.8
1 -2 3 71.19 3.7
-1 2 -3 69.09 3.8
-1 2 -3 70.79 4
-1 2 -3 67.39 3.7
0 -2 3 162.08 9.7
0 -2 3 195.88 9.9
0 -2 3 186.78 9.8
0 -2 3 193.88 10
0 2 -3 184.48 9.8
0 2 -3 193.08 9.8
0 2 -3 189.48 9.9
0 2 -3 196.38 10
0 2 -3 206.68 9.9
-1 -2 3 55.09 3.1
1 2 -3 52.69 3.1
1 2 -3 56.09 3.1
1 2 -3 58.79 3
1 2 -3 51.99 3
-2 -2 3 232.28 11.9
2 2 -3 227.58 11.9
2 2 -3 223.18 11.9
2 2 -3 224.28 12.1
3 2 -3 7.5 1
3 2 -3 9.8 1.1
3 2 -3 6.7 1.2
4 2 -3 1.8 0.9
4 -3 3 62.09 3.7
4 -3 3 54.89 3.5
4 -3 3 48.3 3.5
-4 3 -3 56.59 3.7
3 -3 3 25.7 2.1
3 -3 3 34.6 2.2
3 -3 3 22.3 2.1
3 -3 3 28.4 1.9
-3 3 -3 30.7 2.2
2 -3 3 52.29 3.1
2 -3 3 52.59 3.3
2 -3 3 56.79 3.1
2 -3 3 51.39 2.9
-2 3 -3 54.49 3.1
-2 3 -3 50.59 3.2
1 -3 3 38.3 2.4
1 -3 3 45.5 2.4
1 -3 3 41.3 2.7
-1 3 -3 43.2 2.3
-1 3 -3 40.5 2.4
-1 3 -3 43.4 2.6
0 -3 3 71.29 3.7
0 -3 3 74.29 3.9
0 -3 3 63.19 3.6
0 3 -3 61.39 3.6
0 3 -3 72.29 3.9
0 3 -3 62.99 3.9
0 3 -3 71.49 3.7
0 3 -3 65.39 3.5
-1 -3 3 54.99 3.1
-1 -3 3 53.59 2.9
1 3 -3 49.7 2.9
1 3 -3 54.59 3.1
1 3 -3 51.29 3.1
2 3 -3 66.39 4
2 3 -3 71.09 3.9
2 3 -3 65.19 3.8
3 3 -3 17.6 1.8
3 3 -3 17.2 1.5
3 3 -3 16.4 1.5
4 -4 3 194.48 10.3
4 -4 3 178.68 10.3
4 -4 3 210.88 10.4
-4 4 -3 191.78 10.5
-4 4 -3 172.38 10.2
3 -4 3 0.6 0.6
3 -4 3 0.5 0.8
3 -4 3 0.9 0.7
3 -4 3 1.2 0.8
-3 4 -3 1 0.8
-3 4 -3 1.6 0.6
2 -4 3 33.7 2.1
2 -4 3 33 1.9
2 -4 3 26 2.3
2 -4 3 27.4 2
-2 4 -3 32.2 1.9
-2 4 -3 28.6 2
1 -4 3 31.3 1.9
1 -4 3 30.3 2.2
1 -4 3 33.9 2
-1 4 -3 35 2.3
-1 4 -3 32.5 2
-1 4 -3 31.8 1.8
0 -4 3 72.69 3.9
0 -4 3 66.19 3.7
0 -4 3 74.99 4.1
0 4 -3 75.49 4.1
0 4 -3 69.89 3.9
0 4 -3 67.19 3.7
-1 -4 3 -0.7 0.6
1 4 -3 1.3 0.4
1 4 -3 1.1 0.5
1 4 -3 1 0.6
2 4 -3 1 0.5
2 4 -3 -0.1 0.6
2 4 -3 0.5 0.6
3 4 -3 5.2 0.9
3 4 -3 6.2 1.1
4 -5 3 14.2 1.6
4 -5 3 9.6 1.5
-4 5 -3 13.6 1.5
3 -5 3 2.9 1.1
3 -5 3 0.9 0.9
3 -5 3 1.2 0.9
3 -5 3 3.1 0.8
-3 5 -3 3 0.7
-3 5 -3 1.5 0.9
2 -5 3 129.89 6.5
2 -5 3 111.89 6.7
2 -5 3 109.49 6.4
-2 5 -3 122.39 6.3
-2 5 -3 112.79 6.4
1 -5 3 3.1 0.5
1 -5 3 3.3 0.6
1 -5 3 3.9 1
-1 5 -3 3.6 0.9
-1 5 -3 2.8 0.6
-1 5 -3 3.4 0.4
0 -5 3 10.9 0.8
0 -5 3 10.2 1.3
0 5 -3 12.5 1.1
0 5 -3 12.3 1.3
0 5 -3 10.3 0.8
-1 -5 3 1.6 0.8
1 5 -3 2.3 0.6
1 5 -3 2.5 0.5
1 5 -3 2.9 0.9
2 5 -3 11.7 1.4
2 5 -3 13.3 1.6
3 5 -3 6.5 1.3
4 -6 3 0.7 1.2
3 -6 3 17.4 1.8
3 -6 3 17.3 2.2
3 -6 3 18.1 1.9
-3 6 -3 19.7 1.6
-3 6 -3 18.5 2
2 -6 3 33.6 2.8
2 -6 3 36.1 2.3
2 -6 3 32.8 2.2
-2 6 -3 35.6 2.4
-2 6 -3 33.9 2.1
1 -6 3 2.7 0.6
1 -6 3 3.2 1.1
-1 6 -3 3.1 0.5
-1 6 -3 2.4 0.7
0 -6 3 -0.5 0.9
0 6 -3 1.9 0.6
0 6 -3 2 0.8
0 6 -3 1.1 0.6
-1 -6 3 -0.2 0.7
1 6 -3 0 0.6
1 6 -3 -0.9 0.7
2 6 -3 0.1 0.8
2 6 -3 0.2 0.7
3 -7 3 46.1 3.4
3 -7 3 48.9 3.1
3 -7 3 45.6 4.1
2 -7 3 3.9 1.4
2 -7 3 5.6 0.8
-2 7 -3 4.8 1.1
1 -7 3 -0.7 1.1
-1 7 -3 0 0.7
0 -7 3 37.7 2.9
0 7 -3 37.6 2.5
-1 -7 3 5.4 1.1
1 7 -3 5.9 1.2
1 7 -3 4.8 0.9
2 7 -3 6 1.3
2 -8 3 0.3 1
1 -8 3 47.1 3.6
-1 8 -3 44.9 3.1
0 -8 3 -0.3 1
0 8 -3 -0.4 0.7
1 10 4 4.2 1
-1 -10 -4 4.4 1.1
0 10 4 0.6 0.6
0 10 4 0.6 0.6
0 10 4 1.4 0.6
0 -10 -4 1.5 1
0 -10 -4 0.3 0.7
-1 10 4 -1.9 0.7
-1 10 4 -1.4 0.6
1 -10 -4 -0.8 0.6
1 -10 -4 -2.2 0.7
2 9 4 18.4 1.7
2 9 4 20.5 1.5
1 9 4 0.1 0.4
1 9 4 0.1 0.5
1 9 4 0 0.4
-1 -9 -4 0.3 0.7
0 9 4 3.8 0.7
0 9 4 2.5 0.5
0 9 4 2.3 0.6
0 -9 -4 3.4 1
0 -9 -4 1.3 0.7
-1 9 4 7 1
-1 9 4 7.6 0.9
-1 9 4 8.1 0.9
1 -9 -4 8.2 1
1 -9 -4 6.1 1.4
1 -9 -4 6.4 0.9
-2 9 4 23.8 2.3
-2 9 4 20.4 2
2 -9 -4 20 2
2 -9 -4 27.2 2.9
2 -9 -4 24.5 2.2
2 8 4 6.4 0.8
2 8 4 6.4 0.9
1 8 4 1.2 0.5
1 8 4 0.7 0.4
1 8 4 -0.1 0.3
-1 -8 -4 1 0.6
-1 -8 -4 0.8 0.6
0 8 4 34.9 2.1
0 8 4 33.9 2.1
0 8 4 33.8 2
0 -8 -4 32.8 2.2
0 -8 -4 29.7 2.4
-1 8 4 0.7 0.6
-1 8 4 0.4 0.4
-1 8 4 0.4 0.5
1 -8 -4 0.6 0.5
1 -8 -4 0.1 0.5
1 -8 -4 -0.9 0.8
-2 8 4 0.8 0.9
-2 8 4 1 0.6
-2 8 4 1.4 0.7
2 -8 -4 1.3 0.8
2 -8 -4 1.4 0.6
2 -8 -4 1.1 0.9
-3 8 4 -1.1 1.6
3 7 4 10.7 1.2
3 7 4 10.6 1.1
2 7 4 4.9 0.6
2 7 4 4.6 0.6
2 7 4 4.6 0.7
1 7 4 8.6 0.8
1 7 4 7.9 0.8
1 7 4 6.5 0.7
-1 -7 -4 6.5 0.9
-1 -7 -4 6.4 0.9
0 7 4 25.4 1.6
0 7 4 26.7 1.6
0 7 4 25.8 1.6
0 -7 -4 24.7 2
0 -7 -4 26.9 1.7
-1 7 4 8 0.9
-1 7 4 9 0.9
-1 7 4 8.7 1.1
1 -7 -4 8.1 0.9
1 -7 -4 8.5 0.8
1 -7 -4 7.9 1.2
-2 7 4 14.4 1.3
-2 7 4 14.1 1.4
-2 7 4 17 1.8
2 -7 -4 13.9 1.9
2 -7 -4 14 1.4
2 -7 -4 16.2 1.3
-3 7 4 0.5 1
-3 7 4 0.1 0.6
-3 7 4 1.3 0.8
3 -7 -4 0.6 0.8
3 -7 -4 0.5 0.6
3 -7 -4 -0.1 1.2
4 6 4 1.9 1
3 6 4 1 0.6
3 6 4 2.2 0.6
2 6 4 384.66 19.8
2 6 4 370.66 19.9
2 6 4 378.16 19.9
2 6 4 393.36 20.2
-2 -6 -4 394.16 19.9
-2 -6 -4 373.96 20
1 6 4 11.2 0.8
1 6 4 11.7 0.9
1 6 4 12.5 0.9
-1 -6 -4 10.5 1.1
-1 -6 -4 10.9 1.2
0 6 4 39.5 2.3
0 6 4 40.1 2.3
0 6 4 41.5 2.3
0 -6 -4 39.8 2.6
0 -6 -4 40.4 2.3
-1 6 4 3.6 0.6
-1 6 4 4.3 0.6
-1 6 4 3.7 0.6
1 -6 -4 3 0.6
1 -6 -4 3 0.5
1 -6 -4 3.4 0.8
-2 6 4 15.6 1.3
-2 6 4 15.3 1.6
2 -6 -4 14.2 1.1
2 -6 -4 12.5 1.7
2 -6 -4 14.6 1.3
-3 6 4 34.6 2.6
-3 6 4 35.8 2.3
-3 6 4 24.5 2.1
3 -6 -4 34.7 2.1
3 -6 -4 28 2.2
3 -6 -4 32.3 2.6
4 5 4 1 0.7
3 5 4 359.46 19.4
3 5 4 366.06 19.5
3 5 4 410.56 19.7
3 5 4 358.06 19.5
2 5 4 57.09 3.2
2 5 4 61.19 3.5
2 5 4 57.79 3.2
2 5 4 55.29 3.2
2 5 4 56.39 3.2
-2 -5 -4 58.49 3.2
-2 -5 -4 54.59 3.4
1 5 4 8.4 0.7
1 5 4 7.5 0.7
1 5 4 7.5 0.7
1 5 4 9 1
-1 -5 -4 8 0.9
-1 -5 -4 9 0.9
0 5 4 265.57 13.6
0 5 4 257.87 13.6
0 5 4 259.47 13.7
0 5 4 264.27 13.7
0 -5 -4 260.67 13.7
0 -5 -4 276.97 13.8
0 -5 -4 260.47 13.9
-1 5 4 -0.2 0.3
-1 5 4 -0.1 0.3
-1 5 4 0.4 0.4
1 -5 -4 -0.1 0.6
1 -5 -4 0.1 0.2
1 -5 -4 -0.3 0.4
1 -5 -4 0 0.3
-2 5 4 0.6 0.5
-2 5 4 3.5 0.7
-2 5 4 3.9 0.6
2 -5 -4 2.9 0.9
2 -5 -4 3.2 0.6
2 -5 -4 2.7 0.4
-3 5 4 4.7 1.2
-3 5 4 4.9 0.9
3 -5 -4 7.2 1.1
3 -5 -4 4.2 0.7
3 -5 -4 6.3 1
3 -5 -4 6.6 0.9
4 4 4 35.8 2.5
4 4 4 33.3 2.5
4 4 4 40.9 2.9
3 4 4 245.48 13.2
3 4 4 274.57 13.4
3 4 4 237.98 13.1
3 4 4 241.58 13.2
2 4 4 42.3 2.4
2 4 4 46.7 2.7
2 4 4 42.1 2.4
2 4 4 39.8 2.4
2 4 4 40.3 2.4
1 4 4 134.29 7.2
1 4 4 133.29 7.1
1 4 4 142.79 7.2
1 4 4 132.09 7
1 4 4 141.59 7.1
-1 -4 -4 133.39 7.2
-1 -4 -4 128.79 7.2
0 4 4 65.69 3.4
0 4 4 54.29 3.4
0 4 4 65.39 3.4
0 4 4 65.69 3.3
0 -4 -4 63.89 3.6
0 -4 -4 63.69 3.4
0 -4 -4 65.29 3.5
-1 4 4 0.1 0.3
-1 4 4 -0.1 0.3
-1 4 4 -0.3 0.3
1 -4 -4 0.1 0.2
1 -4 -4 -0.3 0.5
1 -4 -4 0.1 0.2
1 -4 -4 0.1 0.3
-2 4 4 0.6 0.4
-2 4 4 0.5 0.6
2 -4 -4 0.7 0.5
2 -4 -4 0.4 0.2
2 -4 -4 0 0.2
2 -4 -4 0.3 0.5
2 -4 -4 0.9 0.7
-3 4 4 0.4 0.6
-3 4 4 1 0.9
3 -4 -4 0.3 0.7
3 -4 -4 0.8 0.7
3 -4 -4 1.3 0.6
3 -4 -4 0.4 0.4
4 -4 -4 -0.2 0.7
4 3 4 148.69 7.6
4 3 4 129.79 7.3
4 3 4 127.89 7.4
4 3 4 134.49 7.5
-4 -3 -4 133.39 7.5
3 3 4 13.1 1.2
3 3 4 10.8 1.4
3 3 4 8.5 1.1
3 3 4 12.5 1.1
2 3 4 0.5 0.3
2 3 4 0 0.5
2 3 4 0.2 0.4
2 3 4 0 0.3
2 3 4 0.5 0.3
-2 -3 -4 0.2 0.5
1 3 4 531.85 27
1 3 4 547.55 27
1 3 4 503.55 26.9
1 3 4 544.95 27.1
1 3 4 536.25 27.1
-1 -3 -4 531.15 27.1
-1 -3 -4 527.35 27.1
-1 -3 -4 469.95 27.1
0 3 4 47.8 2.6
0 3 4 47.7 2.8
0 3 4 50.69 2.6
0 3 4 50.79 2.5
0 3 4 50.59 2.6
0 -3 -4 48.1 2.6
0 -3 -4 48.2 2.8
0 -3 -4 42 2.6
0 -3 -4 48.6 2.7
-1 3 4 40.3 2.4
-1 3 4 43.8 2.3
-1 3 4 41.3 2.3
1 -3 -4 39.5 2.5
1 -3 -4 41.4 2.3
1 -3 -4 36.2 2.1
1 -3 -4 45.9 2.1
-2 3 4 71.59 4.3
-2 3 4 67.49 4.2
-2 3 4 76.39 4.1
2 -3 -4 82.59 4.1
2 -3 -4 77.99 4.1
2 -3 -4 71.99 4.2
2 -3 -4 73.59 4.3
-3 3 4 10 1.4
-3 3 4 14.4 1.4
-3 3 4 12.4 1.2
3 -3 -4 15.3 1.2
3 -3 -4 10.5 1.7
3 -3 -4 15.5 1.8
3 -3 -4 13.2 1.3
3 -3 -4 13.2 1
-4 3 4 1.2 0.7
4 -3 -4 0.8 1
4 2 4 7.3 1.1
4 2 4 9.2 1
4 2 4 8.5 1.2
4 2 4 10.1 1.3
-4 -2 -4 9.1 1.2
3 2 4 -0.1 0.5
3 2 4 0.4 0.5
3 2 4 -0.8 0.6
-3 -2 -4 -0.7 0.5
2 2 4 154.58 8.3
2 2 4 159.08 8.3
2 2 4 154.48 8.3
2 2 4 155.08 8.3
2 2 4 167.78 8.4
-2 -2 -4 147.39 8.3
-2 -2 -4 162.78 8.5
1 2 4 110.39 5.6
1 2 4 109.09 5.5
1 2 4 102.79 5.5
1 2 4 101.89 5.4
-1 -2 -4 96.99 5.5
-1 -2 -4 98.09 5.3
0 2 4 8.8 0.5
0 2 4 8.9 0.9
0 2 4 8.8 0.5
0 2 4 8.8 0.5
0 2 4 9.3 0.6
0 -2 -4 9 0.9
0 -2 -4 7.8 0.6
0 -2 -4 8.1 0.6
-1 2 4 321.37 17.7
-1 2 4 326.17 17.6
-1 2 4 343.17 17.5
-1 2 4 348.77 17.5
1 -2 -4 367.96 17.5
1 -2 -4 341.37 17.6
1 -2 -4 340.77 17.5
1 -2 -4 324.37 17.7
-2 2 4 12.5 1
-2 2 4 14.2 1.4
-2 2 4 14.3 1.2
2 -2 -4 13.1 1.5
2 -2 -4 14.7 1.2
2 -2 -4 16 1.1
2 -2 -4 16 1
-3 2 4 -1.9 0.8
3 -2 -4 0.2 0.8
3 -2 -4 -0.1 0.3
3 -2 -4 -1.1 0.6
3 -2 -4 0 0.5
4 -2 -4 0.7 1
4 1 4 0.7 0.9
4 1 4 0.9 0.7
4 1 4 0 0.7
4 1 4 1.6 0.7
-4 -1 -4 0.8 0.8
3 1 4 -0.1 0.5
3 1 4 0.8 0.5
3 1 4 -0.1 0.6
3 1 4 0.1 0.6
-3 -1 -4 -0.3 0.5
2 1 4 441.36 22.7
2 1 4 421.76 22.6
2 1 4 444.76 22.7
2 1 4 437.46 22.7
-2 -1 -4 458.15 22.8
-2 -1 -4 422.26 22.6
1 1 4 24.3 1.4
1 1 4 25.3 1.5
1 1 4 26.5 1.5
1 1 4 25.4 1.6
-1 -1 -4 22.4 1.5
-1 -1 -4 23.5 1.4
-1 -1 -4 26.5 1.7
-1 -1 -4 26.5 1.4
0 1 4 18.1 0.9
0 1 4 17 1
0 1 4 15.6 0.9
0 1 4 15.9 0.9
0 1 4 16.3 1.2
0 -1 -4 13.8 0.9
0 -1 -4 16.4 1
0 -1 -4 15.4 1.1
0 -1 -4 14.8 0.9
-1 1 4 123.79 6.8
-1 1 4 118.09 6.6
-1 1 4 136.49 6.6
1 -1 -4 135.09 6.6
1 -1 -4 123.59 6.8
-2 1 4 14.4 0.9
-2 1 4 10.7 1.1
2 -1 -4 12.2 1
2 -1 -4 13.2 0.9
2 -1 -4 10.6 1.3
2 -1 -4 12.1 0.7
-3 1 4 -1.1 0.8
3 -1 -4 0.4 0.3
3 -1 -4 0.6 0.9
3 -1 -4 -1.5 0.6
4 -1 -4 0.2 0.9
4 0 4 3.3 1
4 0 4 3.3 0.9
4 0 4 2.8 0.7
-4 0 -4 2.2 0.9
3 0 4 90.29 4.8
3 0 4 80.19 4.6
3 0 4 81.29 4.6
3 0 4 79.39 4.6
-3 0 -4 83.59 4.7
2 0 4 0.1 0.4
2 0 4 1.1 0.4
2 0 4 0.1 0.4
2 0 4 -0.9 0.5
-2 0 -4 -0.2 0.4
-2 0 -4 -0.7 0.4
1 0 4 201.38 10.1
1 0 4 182.28 10
1 0 4 200.58 10.2
1 0 4 197.28 10.1
-1 0 -4 203.88 10
-1 0 -4 163.18 10.1
-1 0 -4 199.48 10.3
-1 0 -4 203.58 10
0 0 4 784.62 39.8
0 0 4 744.83 39.7
0 0 4 783.42 39.8
0 0 4 761.82 39.9
0 0 -4 741.43 39.8
0 0 -4 769.62 39.9
0 0 -4 832.92 39.8
-1 0 4 1.6 0.2
-1 0 4 1.4 0.5
1 0 -4 1.3 0.2
1 0 -4 1.6 0.3
1 0 -4 0.8 0.4
1 0 -4 1 0.3
-2 0 4 74.39 3.6
-2 0 4 66.89 3.8
2 0 -4 61.69 3.6
2 0 -4 65.29 3.7
2 0 -4 60.89 3.9
2 0 -4 67.69 3.6
2 0 -4 69.29 3.6
3 0 -4 109.59 6.5
3 0 -4 129.79 6.7
3 0 -4 129.99 7
4 0 -4 2.5 1
4 -1 4 -0.1 0.7
4 -1 4 0.1 0.6
4 -1 4 1.1 1
-4 1 -4 0.1 0.8
3 -1 4 3.5 0.8
3 -1 4 3.2 0.7
3 -1 4 1.3 0.7
3 -1 4 2.2 0.6
-3 1 -4 3.3 0.7
2 -1 4 15.1 1.1
2 -1 4 14.7 1.2
2 -1 4 14.3 1.3
2 -1 4 15.5 1.1
-2 1 -4 16 1.3
-2 1 -4 15.5 1.1
1 -1 4 172.78 9.2
1 -1 4 188.28 9.1
1 -1 4 172.28 9.1
1 -1 4 156.38 9
-1 1 -4 184.08 9
-1 1 -4 177.68 9.3
-1 1 -4 164.38 9
0 -1 4 490.65 26.1
0 -1 4 505.45 25.9
0 -1 4 493.35 25.9
0 1 -4 539.05 25.9
0 1 -4 511.45 26.1
0 1 -4 478.15 25.9
-1 -1 4 101.09 5.8
-1 -1 4 113.79 6
-1 -1 4 122.49 5.8
1 1 -4 109.89 6
1 1 -4 103.09 5.8
1 1 -4 112.69 6.1
1 1 -4 117.99 5.8
-2 -1 4 309.97 16
2 1 -4 302.77 15.9
2 1 -4 305.57 16.2
2 1 -4 307.47 15.9
3 1 -4 38.3 2.8
3 1 -4 32.5 2.2
3 1 -4 38.5 2.4
4 -2 4 -1 0.6
4 -2 4 -0.5 0.9
4 -2 4 -0.9 0.7
-4 2 -4 -0.3 0.9
3 -2 4 2.1 0.8
3 -2 4 2.8 0.9
3 -2 4 2.1 0.8
3 -2 4 1.7 0.6
-3 2 -4 2 0.7
2 -2 4 5.9 0.7
2 -2 4 5.2 0.7
2 -2 4 5.5 0.9
2 -2 4 6.9 0.9
-2 2 -4 6.4 0.9
-2 2 -4 6.4 0.9
1 -2 4 479.45 25.2
1 -2 4 471.05 25.3
1 -2 4 511.45 25.2
-1 2 -4 473.25 25.1
-1 2 -4 480.75 25
-1 2 -4 506.35 25.4
0 -2 4 3.4 0.4
0 -2 4 2.5 0.3
0 -2 4 1.3 0.6
0 2 -4 1.7 0.4
0 2 -4 2.1 0.5
0 2 -4 2.1 0.2
0 2 -4 2 0.2
0 2 -4 2.7 0.4
-1 -2 4 79.19 4.1
-1 -2 4 71.49 4.1
-1 -2 4 86.89 4.5
1 2 -4 81.49 4.4
1 2 -4 83.49 4.5
1 2 -4 78.19 4.2
-2 -2 4 756.62 37.8
2 2 -4 736.43 37.8
2 2 -4 715.13 38
2 2 -4 717.83 37.7
3 2 -4 4.5 1
3 2 -4 5.2 0.8
4 -3 4 8.6 1.2
4 -3 4 8.6 1.3
-4 3 -4 14.6 1.8
3 -3 4 14.9 1.6
3 -3 4 17.9 1.4
3 -3 4 19.3 1.7
3 -3 4 13.9 1.8
-3 3 -4 21.2 1.8
2 -3 4 10.7 0.9
2 -3 4 6.8 0.9
2 -3 4 9.3 1.2
2 -3 4 10.1 1.1
-2 3 -4 12 1.2
-2 3 -4 8.6 1.1
-2 3 -4 10.1 0.8
1 -3 4 36.9 2.1
1 -3 4 35.5 2.1
1 -3 4 36.2 2.4
-1 3 -4 35.5 2.3
-1 3 -4 32.7 1.9
-1 3 -4 34.3 2.1
0 -3 4 13 1.3
0 -3 4 12.3 0.8
0 -3 4 11.2 0.7
0 -3 4 13.3 0.9
0 3 -4 13.4 1.3
0 3 -4 13.7 1.1
0 3 -4 13.1 0.8
-1 -3 4 845.02 41.9
1 3 -4 803.82 41.9
1 3 -4 840.52 41.9
1 3 -4 752.02 41.6
2 3 -4 0.9 0.7
2 3 -4 2 0.6
3 3 -4 0.2 0.8
3 3 -4 0.2 0.6
4 -4 4 1.6 0.9
4 -4 4 2.5 1.1
-4 4 -4 2.4 1
-4 4 -4 1.2 0.8
3 -4 4 6.1 1.2
3 -4 4 6.7 1.1
3 -4 4 11.1 1.1
3 -4 4 11.4 1.4
-3 4 -4 6.8 1.1
2 -4 4 -0.2 0.8
2 -4 4 1.5 0.5
2 -4 4 0.4 0.6
2 -4 4 0.3 0.6
-2 4 -4 0.9 0.6
-2 4 -4 1.1 0.4
1 -4 4 37.3 2.7
1 -4 4 41.1 2.3
1 -4 4 35.9 2.2
-1 4 -4 38.9 2.6
-1 4 -4 35.8 2.1
-1 4 -4 38.9 2.3
0 -4 4 23 1.9
0 -4 4 19 1.2
0 4 -4 20.4 1.5
0 4 -4 21.9 1.8
-1 -4 4 76.69 4.4
1 4 -4 77.99 4.4
1 4 -4 70.99 4.3
2 4 -4 26.4 2.1
2 4 -4 26.3 2.1
4 -5 4 -0.3 1
4 -5 4 -0.5 1
-4 5 -4 0.2 0.8
3 -5 4 0 0.8
3 -5 4 0.9 0.8
3 -5 4 1.6 1.1
3 -5 4 1.9 0.8
-3 5 -4 0.8 0.9
-3 5 -4 1.5 0.7
2 -5 4 1.6 0.7
2 -5 4 2.2 1.1
2 -5 4 1.9 0.7
-2 5 -4 2.2 0.5
-2 5 -4 2.5 0.7
1 -5 4 30.9 2.4
1 -5 4 25.6 1.7
-1 5 -4 23.4 1.8
-1 5 -4 27.7 2.2
0 -5 4 46.1 3.3
0 5 -4 49.1 3
0 5 -4 50.39 3.3
-1 -5 4 16 1.6
1 5 -4 14.9 1.5
1 5 -4 15.5 1.7
2 5 -4 2.3 0.9
2 5 -4 1.5 0.7
3 -6 4 12.8 1.8
3 -6 4 15 1.7
-3 6 -4 17.2 2.1
2 -6 4 0.9 0.7
2 -6 4 1.2 1.2
-2 6 -4 0.5 0.8
1 -6 4 -1.5 1.1
-1 6 -4 0.8 0.7
0 -6 4 -1.3 0.9
0 6 -4 -2.1 0.8
0 6 -4 0.2 0.6
-1 -6 4 10.2 1.4
1 6 -4 10.4 1.4
1 6 -4 12.9 1.5
2 6 -4 20.7 2.1
2 -7 4 1 0.8
2 -7 4 0.6 1.1
-2 7 -4 -0.7 0.8
1 -7 4 -1.4 1.1
-1 7 -4 -0.2 0.7
0 -7 4 2 1.2
0 7 -4 1.1 0.7
1 7 -4 -0.2 1.1
1 7 -4 1 0.7
0 -8 4 3.1 1.3
-1 -10 -5 50.19 3.4
0 10 5 -0.8 1.1
0 10 5 -0.3 0.5
0 -10 -5 0 0.7
0 -10 -5 0.9 0.9
2 9 5 1 0.6
1 9 5 2 0.6
1 9 5 2 0.5
-1 -9 -5 1.4 0.7
-1 -9 -5 2.4 0.7
0 9 5 15.2 1.2
0 9 5 14.4 1.2
0 -9 -5 12.6 1.7
0 -9 -5 14.7 1.4
-1 9 5 16.9 1.5
-1 9 5 18.1 1.5
1 -9 -5 17.5 1.5
1 -9 -5 17.9 1.5
1 -9 -5 14.1 1.8
-2 9 5 23.6 2.1
2 8 5 -0.3 0.4
2 8 5 0.4 0.3
1 8 5 0.3 0.5
1 8 5 -0.6 0.3
-1 -8 -5 0.1 0.6
-1 -8 -5 0.6 0.7
0 8 5 12.8 1.1
0 8 5 10.7 1
0 8 5 12.8 1
0 -8 -5 10.8 1.4
0 -8 -5 11.7 1.2
-1 8 5 85.39 4.7
-1 8 5 87.79 4.8
-1 8 5 84.49 4.7
1 -8 -5 87.39 4.7
1 -8 -5 80.59 5.1
1 -8 -5 83.49 4.7
-2 8 5 0.2 0.6
-2 8 5 -1.6 0.8
-2 8 5 -0.4 0.7
2 -8 -5 -0.1 0.7
2 -8 -5 1.9 1.1
2 -8 -5 -0.3 0.5
-3 8 5 7.7 2.2
3 7 5 -0.2 0.5
2 7 5 0.4 0.4
2 7 5 0.7 0.5
1 7 5 49.9 2.8
1 7 5 49.2 2.7
1 7 5 45.8 2.7
-1 -7 -5 46.4 2.9
-1 -7 -5 47.4 3
0 7 5 22.2 1.4
0 7 5 22.9 1.5
0 7 5 23.9 1.5
0 -7 -5 21.3 1.6
0 -7 -5 21.4 1.9
-1 7 5 7.1 0.8
-1 7 5 6 0.8
-1 7 5 6.8 0.8
1 -7 -5 7.3 0.9
1 -7 -5 5.7 1.1
1 -7 -5 5.8 0.8
-2 7 5 0.6 0.6
-2 7 5 0.4 0.8
-2 7 5 0.1 0.8
2 -7 -5 -0.9 1
2 -7 -5 0.5 0.5
2 -7 -5 0.6 0.7
-3 7 5 218.88 11.1
3 -7 -5 180.68 11.1
3 6 5 3.3 0.6
3 6 5 3.1 0.7
2 6 5 17.6 1.4
2 6 5 18.5 1.3
2 6 5 18 1.3
2 6 5 19.5 1.4
-2 -6 -5 19.7 1.4
-2 -6 -5 18 1.6
1 6 5 10.9 0.9
1 6 5 12 0.8
1 6 5 11.5 0.9
-1 -6 -5 10.4 1.1
-1 -6 -5 11.3 1.2
0 6 5 25 1.5
0 6 5 25.3 1.5
0 6 5 24.8 1.5
0 -6 -5 23.9 1.6
0 -6 -5 24.4 1.8
-1 6 5 36 2.2
-1 6 5 37.4 2.2
-1 6 5 38.2 2.2
1 -6 -5 34 2.5
1 -6 -5 37.3 2.2
1 -6 -5 37.2 2.1
-2 6 5 42 2.7
-2 6 5 35.2 2.3
-2 6 5 40.8 2.4
2 -6 -5 31.4 2.7
2 -6 -5 36.1 2.2
2 -6 -5 38.7 2.4
-3 6 5 92.69 5.2
-3 6 5 94.29 5.6
3 -6 -5 85.59 5.5
3 -6 -5 88.69 5.2
3 -6 -5 94.79 5
3 5 5 70.99 4.1
3 5 5 73.89 4.1
3 5 5 68.59 4
2 5 5 10.9 1
2 5 5 12.7 0.9
2 5 5 12 1
2 5 5 11.4 1
-2 -5 -5 10.5 1.1
-2 -5 -5 9.8 1
1 5 5 49.6 2.8
1 5 5 51.09 2.8
1 5 5 49.1 2.7
1 5 5 50.99 2.9
-1 -5 -5 47 2.9
-1 -5 -5 49.8 2.9
0 5 5 24.5 1.5
0 5 5 25.3 1.4
0 5 5 24.5 1.4
0 -5 -5 24 1.8
0 -5 -5 22.5 1.5
-1 5 5 48.7 2.6
-1 5 5 45.9 2.6
-1 5 5 45.2 2.7
1 -5 -5 47.2 2.7
1 -5 -5 46.9 2.5
1 -5 -5 43.9 2.9
-2 5 5 172.58 8.5
-2 5 5 162.78 8.6
-2 5 5 146.39 8.4
2 -5 -5 149.49 8.4
2 -5 -5 169.58 8.3
2 -5 -5 150.88 8.7
-3 5 5 0.2 1
-3 5 5 -0.1 0.7
-3 5 5 2.9 0.9
-3 5 5 2.1 0.6
3 -5 -5 2 0.4
3 -5 -5 2.7 0.9
3 -5 -5 1.9 0.9
3 -5 -5 1.8 0.7
4 4 5 178.48 9.4
4 4 5 166.08 9.2
3 4 5 7.5 1.1
3 4 5 8.1 0.9
3 4 5 7.5 0.9
3 4 5 7.9 1.1
2 4 5 36.2 2.2
2 4 5 38.8 2.3
2 4 5 37.9 2.3
2 4 5 42.3 2.5
2 4 5 37.3 2.2
1 4 5 98.19 5.5
1 4 5 104.09 5.4
1 4 5 99.09 5.4
1 4 5 94.79 5.3
1 4 5 103.59 5.5
-1 -4 -5 90.99 5.5
-1 -4 -5 103.99 5.5
-1 -4 -5 98.59 5.5
-1 -4 -5 115.79 5.3
0 4 5 17.4 1
0 4 5 15.5 1.3
0 4 5 16.6 1
0 4 5 17.5 1.1
0 4 5 16.9 1
0 -4 -5 15.4 1
0 -4 -5 16.5 1.2
0 -4 -5 15.8 1.1
0 -4 -5 17 1.3
-1 4 5 3 0.7
-1 4 5 3.5 0.5
-1 4 5 3.8 0.5
-1 4 5 3 0.5
1 -4 -5 3.8 0.8
1 -4 -5 3.9 0.5
1 -4 -5 3.4 0.5
1 -4 -5 3.9 0.4
-2 4 5 18.1 1.6
-2 4 5 18.9 1.3
-2 4 5 14.2 1.7
2 -4 -5 17.5 1.7
2 -4 -5 21.5 1.4
2 -4 -5 17 1.3
-3 4 5 -0.8 0.5
-3 4 5 -1.5 0.8
-3 4 5 0.1 0.7
-3 4 5 -1.3 0.6
3 -4 -5 -1.5 0.7
3 -4 -5 0.5 0.3
3 -4 -5 -0.2 0.6
3 -4 -5 0.4 0.7
4 3 5 73.09 4.3
4 3 5 74.19 4.4
4 3 5 73.09 4.4
4 3 5 76.19 4.8
3 3 5 -0.2 0.5
3 3 5 -1.1 0.7
3 3 5 0.6 0.5
3 3 5 -0.2 0.5
-3 -3 -5 0.3 0.5
2 3 5 131.19 7.1
2 3 5 134.09 7.1
2 3 5 143.89 7.3
2 3 5 129.89 7.1
2 3 5 136.09 7.2
-2 -3 -5 122.89 7.1
-2 -3 -5 144.69 7.4
1 3 5 6.3 0.7
1 3 5 6.6 0.9
1 3 5 6.9 0.6
1 3 5 6.3 0.6
-1 -3 -5 6.2 0.8
-1 -3 -5 7.4 0.8
0 3 5 14.8 0.9
0 3 5 15.7 0.8
0 3 5 14.5 1.2
0 3 5 14.8 0.9
0 3 5 16.3 1
0 -3 -5 15.3 1
0 -3 -5 15.2 1.2
0 -3 -5 12 1
-1 3 5 30.4 2
-1 3 5 30.5 1.9
-1 3 5 31.3 1.8
-1 3 5 35.6 1.8
1 -3 -5 29.5 2
1 -3 -5 30.1 1.9
1 -3 -5 32.8 1.6
1 -3 -5 27.5 1.6
-2 3 5 -0.4 0.3
-2 3 5 -0.4 0.4
-2 3 5 -0.1 0.5
2 -3 -5 -0.1 0.6
2 -3 -5 -0.3 0.6
2 -3 -5 -0.2 0.5
2 -3 -5 -0.1 0.4
-3 3 5 2 0.6
-3 3 5 1 0.5
-3 3 5 1.1 0.9
3 -3 -5 1 0.7
3 -3 -5 2.1 0.3
3 -3 -5 1.5 0.6
3 -3 -5 1 0.9
4 2 5 1.8 0.9
4 2 5 3.5 0.8
4 2 5 3.7 1.1
4 2 5 3.9 0.9
-4 -2 -5 4 0.9
3 2 5 5.1 0.8
3 2 5 7.1 1
3 2 5 5.9 0.8
3 2 5 5.3 0.8
-3 -2 -5 5.5 0.8
2 2 5 183.18 9.1
2 2 5 162.28 8.9
2 2 5 166.98 9
2 2 5 169.98 9
-2 -2 -5 167.08 8.9
-2 -2 -5 170.48 9.2
1 2 5 22 1.5
1 2 5 22 1.3
1 2 5 20.8 1.2
1 2 5 20.1 1.3
-1 -2 -5 23.5 1.5
-1 -2 -5 18.7 1.4
0 2 5 11.8 0.7
0 2 5 12.3 0.8
0 2 5 12.2 0.7
0 2 5 11.6 1.1
0 2 5 12.9 0.7
0 -2 -5 10.7 0.8
0 -2 -5 12 0.7
-1 2 5 56.49 2.8
-1 2 5 53.39 2.8
-1 2 5 47.2 2.9
-1 2 5 49.1 3
1 -2 -5 48.6 3
1 -2 -5 50.39 2.9
1 -2 -5 49.8 2.7
1 -2 -5 53.09 2.7
-2 2 5 7.4 0.7
-2 2 5 5.9 0.9
-2 2 5 4.7 0.6
-2 2 5 4.8 0.8
2 -2 -5 7.3 0.7
2 -2 -5 6.6 0.7
2 -2 -5 6 0.9
2 -2 -5 6.6 0.8
-3 2 5 9.7 1
-3 2 5 8.1 1.2
3 -2 -5 8.6 1
3 -2 -5 8.8 1.3
3 -2 -5 9.4 0.7
-4 2 5 -0.5 0.6
4 -2 -5 -1.1 1
4 1 5 -0.1 0.9
4 1 5 0.7 0.7
4 1 5 -0.4 0.7
-4 -1 -5 -0.6 0.6
3 1 5 123.69 6.8
3 1 5 120.39 6.8
3 1 5 132.49 7
3 1 5 125.09 6.8
-3 -1 -5 127.59 6.8
2 1 5 0.1 0.4
2 1 5 0.3 0.3
2 1 5 0.2 0.5
2 1 5 -0.2 0.4
-2 -1 -5 0.5 0.6
-2 -1 -5 -0.5 0.3
1 1 5 20.8 1.4
1 1 5 20 1.2
1 1 5 22.5 1.5
1 1 5 21.1 1.3
1 1 5 21.1 1.2
-1 -1 -5 24.8 1.2
-1 -1 -5 20.4 1.2
-1 -1 -5 20 1.4
-1 -1 -5 21.8 1.6
0 1 5 337.77 19.3
0 1 5 394.96 19.3
0 1 5 393.26 19.4
0 1 5 384.96 19.3
0 1 5 375.56 19.6
0 -1 -5 335.87 19.3
0 -1 -5 397.66 19.4
0 -1 -5 382.96 19.5
-1 1 5 60.59 3.2
-1 1 5 55.59 3.4
-1 1 5 58.39 3.2
1 -1 -5 64.09 3.2
1 -1 -5 59.59 3.2
1 -1 -5 60.49 3.1
1 -1 -5 56.99 3.4
-2 1 5 -0.3 0.3
-2 1 5 -1.1 0.4
2 -1 -5 -0.1 0.2
2 -1 -5 -0.3 0.3
2 -1 -5 -1 0.6
2 -1 -5 0 0.2
-3 1 5 -0.4 0.8
3 -1 -5 -1.2 0.7
3 -1 -5 0.3 0.8
3 -1 -5 0.5 0.3
4 0 5 10.9 1.4
4 0 5 9.2 1.2
4 0 5 9.9 1.2
-4 0 -5 7.7 1.2
3 0 5 75.99 4.2
3 0 5 69.19 4.1
3 0 5 66.89 4
3 0 5 68.89 4.1
-3 0 -5 72.89 4.1
2 0 5 10 1
2 0 5 9.2 0.8
2 0 5 9.8 1
2 0 5 9.3 1
-2 0 -5 9.6 1.2
-2 0 -5 10.2 0.9
1 0 5 148.39 8.2
1 0 5 149.88 8.1
1 0 5 136.19 8
1 0 5 154.38 8.1
-1 0 -5 169.78 8
-1 0 -5 156.48 8.3
-1 0 -5 161.68 8
0 0 5 3.1 0.4
0 0 5 2.5 0.6
0 0 -5 3.2 0.4
0 0 -5 2.6 0.5
0 0 -5 2.9 0.4
-1 0 5 28.9 1.5
-1 0 5 24.9 1.8
1 0 -5 24.6 1.7
1 0 -5 26.7 1.6
1 0 -5 27 1.5
1 0 -5 25.1 1.5
-2 0 5 6.2 0.8
2 0 -5 4.1 0.9
2 0 -5 4 0.6
2 0 -5 5 0.7
3 0 -5 13.4 1.7
3 0 -5 10.6 1
4 -1 5 39.7 2.9
4 -1 5 41.3 2.8
4 -1 5 50.39 3.2
-4 1 -5 42.8 2.9
3 -1 5 1 0.7
3 -1 5 0.9 0.5
3 -1 5 0.7 0.7
3 -1 5 1 0.7
-3 1 -5 0.7 0.6
2 -1 5 2.7 0.6
2 -1 5 2.8 0.6
2 -1 5 2.6 0.4
2 -1 5 3.4 0.7
-2 1 -5 3.3 0.8
-2 1 -5 3.3 0.5
1 -1 5 275.27 14.7
1 -1 5 290.97 14.7
1 -1 5 269.97 14.9
1 -1 5 274.37 14.5
-1 1 -5 280.87 14.5
-1 1 -5 297.27 14.6
-1 1 -5 288.97 14.9
0 -1 5 34.5 1.9
0 -1 5 33.3 1.9
0 -1 5 32.2 2.2
0 1 -5 34.8 2
0 1 -5 31.9 1.9
0 1 -5 35.7 2.2
-1 -1 5 26.6 1.5
-1 -1 5 27.7 1.8
1 1 -5 23.9 1.5
1 1 -5 26.2 1.7
1 1 -5 27 1.8
-2 -1 5 30.3 1.9
2 1 -5 23.4 1.8
2 1 -5 27.3 2.2
3 1 -5 7.1 1
3 1 -5 8.7 1.3
4 -2 5 -0.4 0.9
4 -2 5 1.8 0.8
4 -2 5 1.3 1
-4 2 -5 0.5 1
3 -2 5 5.8 0.8
3 -2 5 6.8 1
3 -2 5 5.3 1
3 -2 5 6.8 1
-3 2 -5 7.2 1
2 -2 5 125.09 7.1
2 -2 5 123.99 7
2 -2 5 138.39 7
2 -2 5 125.59 6.8
-2 2 -5 133.09 6.9
-2 2 -5 124.99 7.1
1 -2 5 39 2.2
1 -2 5 35.9 2.5
1 -2 5 37.2 2.2
-1 2 -5 36.2 2.4
-1 2 -5 33.4 1.9
-1 2 -5 37.6 2.1
0 -2 5 118.79 6.3
0 -2 5 119.39 6.6
0 2 -5 123.19 6.4
0 2 -5 119.89 6.6
-1 -2 5 337.27 17.2
1 2 -5 328.37 17.1
1 2 -5 316.47 17.1
2 2 -5 1 0.7
2 2 -5 0.5 0.5
3 2 -5 31.9 2.6
3 2 -5 25.6 2
4 -3 5 -0.7 0.7
4 -3 5 0 1
4 -3 5 -1.2 0.8
-4 3 -5 -0.8 1
3 -3 5 2.9 0.7
3 -3 5 3.7 0.9
3 -3 5 3.1 1
3 -3 5 1.8 0.9
-3 3 -5 2.8 0.6
-3 3 -5 3.9 0.8
2 -3 5 128.99 7.6
2 -3 5 128.49 7.4
2 -3 5 141.29 7.2
2 -3 5 149.29 7.4
-2 3 -5 134.59 7.2
-2 3 -5 134.49 7.3
-2 3 -5 136.29 8.4
1 -3 5 7.1 1.1
1 -3 5 7 0.8
-1 3 -5 7.2 1
-1 3 -5 6.6 0.8
0 -3 5 150.48 8.2
0 -3 5 138.89 7.8
0 3 -5 154.78 8
0 3 -5 152.88 8.2
-1 -3 5 394.26 19.7
1 3 -5 373.16 19.7
1 3 -5 357.66 19.6
2 3 -5 0.3 0.6
2 3 -5 0.5 0.7
-4 4 -5 -0.4 1.1
3 -4 5 22.7 2.4
3 -4 5 19.8 2
-3 4 -5 28.9 2.1
2 -4 5 2.3 1.1
2 -4 5 2 0.7
-2 4 -5 3.3 0.7
1 -4 5 2.9 1
1 -4 5 2.2 0.6
-1 4 -5 1.6 0.6
-1 4 -5 2.4 0.9
0 -4 5 891.91 46.5
0 4 -5 909.31 46.5
0 4 -5 887.91 46.3
-1 -4 5 13.1 1.6
1 4 -5 13.2 1.6
1 4 -5 11.2 1.4
2 4 -5 1.6 0.8
2 4 -5 0.8 0.7
3 -5 5 -0.2 0.9
3 -5 5 -0.2 1.1
-3 5 -5 -0.5 0.9
2 -5 5 1.8 0.7
2 -5 5 3.3 1.2
-2 5 -5 1 0.8
1 -5 5 177.78 9.9
-1 5 -5 190.28 10.6
-1 5 -5 166.58 9.5
0 -5 5 28.6 2.4
0 5 -5 26.2 2.3
0 5 -5 25.5 2
-1 -5 5 6.9 1.2
1 5 -5 7.7 1.1
1 5 -5 9.9 1.3
2 5 -5 45 3.1
2 5 -5 43 3
3 -6 5 1.5 0.9
-3 6 -5 0.8 1.2
2 -6 5 0.2 0.7
2 -6 5 0.3 1.3
-2 6 -5 -1.1 0.7
1 -6 5 81.59 5.2
-1 6 -5 79.59 4.6
0 -6 5 22.2 2.3
0 6 -5 24.2 2.3
0 6 -5 21.7 1.9
-1 -6 5 1.3 1.6
1 6 -5 0.8 0.7
1 6 -5 1.7 1
1 -7 5 0.5 1.3
-1 7 -5 0.3 0.8
0 -7 5 1.1 1.2
0 7 -5 1.7 0.9
1 10 6 44.3 2.8
-1 -10 -6 50.29 3.2
0 10 6 -0.7 0.5
0 -10 -6 -0.1 0.9
0 -10 -6 -0.7 0.6
2 9 6 55.79 3.2
1 9 6 -0.5 0.4
1 9 6 -0.1 0.5
-1 -9 -6 0 0.7
-1 -9 -6 -0.6 0.6
0 9 6 5.5 0.8
0 9 6 5.1 0.7
0 -9 -6 5.4 1.2
0 -9 -6 5.2 0.8
-1 9 6 14.1 1.3
-1 9 6 13.3 1.3
1 -9 -6 12.4 1.7
1 -9 -6 13.8 1.4
2 8 6 1.9 0.5
2 8 6 2.5 0.6
1 8 6 39.3 2.3
1 8 6 37.3 2.3
-1 -8 -6 37.5 2.5
-1 -8 -6 40.2 2.6
0 8 6 23.3 1.6
0 8 6 22.2 1.5
0 -8 -6 21.7 1.7
0 -8 -6 22.5 2
-1 8 6 15.5 1.3
-1 8 6 15.8 1.3
1 -8 -6 15.4 1.9
1 -8 -6 15.6 1.4
-2 8 6 7.3 1.1
-2 8 6 9.5 1.1
2 -8 -6 9.3 1.2
2 -8 -6 11.4 1.2
2 -8 -6 10.3 1.6
3 7 6 1.6 0.5
3 7 6 1.6 0.6
2 7 6 5.6 0.7
2 7 6 5.4 0.7
-2 -7 -6 7.2 0.9
-2 -7 -6 6.6 1.1
1 7 6 9.2 0.9
1 7 6 10.1 0.9
1 7 6 10 1.3
-1 -7 -6 9.6 1.2
-1 -7 -6 9.3 1.2
0 7 6 124.59 6.5
0 7 6 125.19 6.5
0 -7 -6 117.99 6.6
0 -7 -6 119.89 6.8
-1 7 6 12.5 1.2
-1 7 6 14.4 1.2
1 -7 -6 14.5 1.2
1 -7 -6 13.7 1.7
-2 7 6 42.1 2.6
-2 7 6 43.9 2.7
2 -7 -6 40 2.5
2 -7 -6 44.8 2.7
2 -7 -6 42.6 3.2
3 -7 -6 58.99 4.4
3 6 6 0.2 0.5
3 6 6 0.5 0.5
2 6 6 18.6 1.4
2 6 6 18.5 1.4
2 6 6 18.2 1.3
-2 -6 -6 18.9 1.5
-2 -6 -6 18.5 1.6
1 6 6 94.29 5.3
1 6 6 100.89 5.3
1 6 6 101.19 5.5
-1 -6 -6 100.99 5.5
-1 -6 -6 95.49 5.4
0 6 6 0.4 0.4
0 6 6 -0.1 0.5
0 6 6 0.5 0.4
0 -6 -6 0.1 0.5
0 -6 -6 0 0.4
-1 6 6 2.8 0.6
-1 6 6 4.7 0.6
-1 6 6 4 0.6
1 -6 -6 2.9 0.8
1 -6 -6 4.4 0.6
-2 6 6 493.65 24.9
-2 6 6 461.25 24.7
-2 6 6 504.65 24.7
2 -6 -6 450.85 25.1
2 -6 -6 486.05 24.6
2 -6 -6 462.35 24.7
-3 6 6 -1.2 0.9
-3 6 6 0.4 0.9
-3 6 6 1.1 0.8
-3 6 6 0.5 0.7
3 -6 -6 0.9 0.8
3 -6 -6 0.3 1
3 -6 -6 0.2 0.4
4 5 6 0.5 0.6
3 5 6 25 1.8
3 5 6 24.2 1.7
2 5 6 1.7 0.5
2 5 6 1.4 0.5
2 5 6 2 0.5
1 5 6 15.8 1.1
1 5 6 15.3 1.3
1 5 6 16.1 1.1
-1 -5 -6 15 1.3
-1 -5 -6 16.2 1.3
0 5 6 29.2 2.1
0 5 6 30.3 1.6
0 5 6 32 1.7
0 5 6 30.8 1.8
0 -5 -6 28 2.1
0 -5 -6 26.4 1.8
-1 5 6 322.17 16.7
-1 5 6 348.47 16.7
-1 5 6 301.27 17
-1 5 6 335.47 16.8
1 -5 -6 315.27 16.7
1 -5 -6 309.47 17
-2 5 6 68.09 3.7
-2 5 6 59.19 3.8
-2 5 6 64.39 3.6
-2 5 6 58.99 4
2 -5 -6 68.59 3.4
2 -5 -6 62.79 3.6
2 -5 -6 65.99 4.1
-3 5 6 0.8 0.8
-3 5 6 1.3 0.7
-3 5 6 0.9 0.9
-3 5 6 0.1 0.9
3 -5 -6 2.4 0.4
3 -5 -6 1.2 0.7
3 -5 -6 2 1.1
4 4 6 2.6 0.8
4 4 6 1.1 0.7
3 4 6 2.5 0.6
3 4 6 2.5 0.6
2 4 6 18.8 1.4
2 4 6 17.8 1.3
2 4 6 19.4 1.3
-2 -4 -6 19 1.6
1 4 6 83.29 4.5
1 4 6 84.09 4.3
1 4 6 82.29 4.4
-1 -4 -6 82.39 4.5
-1 -4 -6 71.19 4.4
0 4 6 5.3 0.5
0 4 6 4.6 0.8
0 4 6 4.8 0.4
0 4 6 5.2 0.5
0 -4 -6 5.3 0.8
0 -4 -6 3.2 0.5
-1 4 6 314.07 16.3
-1 4 6 316.27 16.1
-1 4 6 333.17 16
-1 4 6 302.77 16.1
1 -4 -6 300.07 15.9
1 -4 -6 314.17 16.3
1 -4 -6 284.87 16
-2 4 6 23.7 2
-2 4 6 22.7 1.9
-2 4 6 23.9 1.6
-2 4 6 24.5 1.7
2 -4 -6 23.8 2.1
2 -4 -6 24.8 1.6
-3 4 6 2.4 0.6
-3 4 6 2.5 0.9
-3 4 6 3.2 0.8
3 -4 -6 2.3 0.7
3 -4 -6 1.7 0.9
4 3 6 0.5 0.7
4 3 6 0.9 0.7
3 3 6 21.7 1.6
3 3 6 19.8 1.5
2 3 6 0.1 0.4
2 3 6 -0.1 0.4
2 3 6 0.4 0.5
2 3 6 0.5 0.7
-2 -3 -6 0.1 0.5
1 3 6 45.2 2.6
1 3 6 45.3 2.6
1 3 6 47.6 2.8
1 3 6 46.5 2.5
0 3 6 91.59 4.6
0 3 6 93.59 4.7
0 3 6 86.59 4.5
0 3 6 91.19 4.9
0 3 6 90.19 4.6
0 -3 -6 77.59 4.7
0 -3 -6 82.09 4.7
0 -3 -6 91.39 4.9
-1 3 6 2.8 0.7
-1 3 6 3.2 0.4
-1 3 6 2.3 0.5
-1 3 6 2.9 0.4
1 -3 -6 2.8 0.5
1 -3 -6 2.8 0.3
1 -3 -6 3.6 0.4
1 -3 -6 2.7 0.7
-2 3 6 -0.6 0.4
-2 3 6 -0.9 0.6
-2 3 6 -0.8 0.6
-2 3 6 -0.8 0.4
2 -3 -6 -1 0.6
2 -3 -6 -0.1 0.4
2 -3 -6 -0.2 0.6
2 -3 -6 -0.7 0.5
-3 3 6 58.59 3.4
-3 3 6 54.59 3.8
3 -3 -6 60.49 3.4
3 -3 -6 59.39 4
4 2 6 3.2 0.8
4 2 6 4.2 0.9
3 2 6 31.8 2.4
3 2 6 30.7 2
3 2 6 27.1 2
2 2 6 1 0.5
2 2 6 1 0.5
2 2 6 1.6 0.5
2 2 6 1 0.4
-2 -2 -6 1.7 0.6
-2 -2 -6 0.8 0.4
1 2 6 14.9 1.3
1 2 6 15.5 1.1
1 2 6 14.3 0.9
1 2 6 15.6 1
-1 -2 -6 15.9 1.3
-1 -2 -6 13.6 1.1
0 2 6 84.89 4.4
0 2 6 79.29 4.3
0 2 6 82.59 4.3
0 2 6 86.19 4.3
0 2 6 81.99 4.6
0 -2 -6 73.99 4.4
0 -2 -6 82.39 4.3
0 -2 -6 85.39 4.5
-1 2 6 0.6 0.6
-1 2 6 0 0.3
-1 2 6 0.2 0.3
1 -2 -6 -0.1 0.4
1 -2 -6 0.2 0.2
-2 2 6 22.2 1.9
-2 2 6 25.1 1.6
-2 2 6 23.4 1.9
-2 2 6 26.1 1.5
2 -2 -6 25.8 2
2 -2 -6 26.5 1.6
2 -2 -6 24.4 1.3
2 -2 -6 21.6 1.3
-3 2 6 20 1.6
-3 2 6 23.6 2.1
3 -2 -6 16.4 1.2
3 -2 -6 24.6 2.3
4 1 6 5 1
4 1 6 6.1 1
3 1 6 27.5 2.1
3 1 6 26.2 1.9
3 1 6 25.2 1.9
3 1 6 25.6 1.8
-3 -1 -6 30.2 2.4
2 1 6 1.6 0.6
2 1 6 2 0.6
2 1 6 1.2 0.4
2 1 6 1.4 0.5
-2 -1 -6 2 0.4
-2 -1 -6 1.9 0.7
1 1 6 3.8 0.7
1 1 6 3.8 0.6
1 1 6 4.4 0.4
1 1 6 4.7 0.4
1 1 6 4.9 0.6
-1 -1 -6 4.5 0.7
0 1 6 5.9 0.4
0 1 6 4.1 0.4
0 1 6 6.8 0.7
0 1 6 4.9 0.8
0 -1 -6 6.1 0.8
0 -1 -6 6.2 0.6
0 -1 -6 4.5 0.5
-1 1 6 0.2 0.2
-1 1 6 0.5 0.6
-1 1 6 1.3 0.3
1 -1 -6 0.5 0.2
1 -1 -6 0.8 0.5
1 -1 -6 0.3 0.3
-2 1 6 40.2 2.3
-2 1 6 41.9 2.6
2 -1 -6 39.5 2.7
2 -1 -6 37.5 2.2
-3 1 6 2.7 0.9
3 -1 -6 1.1 0.9
3 -1 -6 1.4 0.4
4 0 6 50.99 3.2
4 0 6 51.39 3.3
3 0 6 1.2 0.8
3 0 6 1 0.6
3 0 6 1.1 0.7
3 0 6 0.3 0.7
-3 0 -6 0.9 0.6
2 0 6 5.8 0.8
2 0 6 7.6 1
2 0 6 7.2 1
2 0 6 6.1 0.7
-2 0 -6 8.6 0.8
-2 0 -6 7.4 1
1 0 6 88.89 5.1
1 0 6 83.09 4.9
1 0 6 98.59 5
1 0 6 89.69 5.3
-1 0 -6 97.29 5.3
-1 0 -6 104.99 5
0 0 6 28.1 1.7
0 0 6 27.3 2
0 0 -6 28.6 1.9
0 0 -6 30.3 1.8
-1 0 6 5.3 0.8
-1 0 6 5.2 0.6
1 0 -6 5 0.7
1 0 -6 5 0.7
-2 0 6 0.3 0.6
2 0 -6 -0.5 0.7
2 0 -6 -0.6 0.4
3 0 -6 0.3 0.8
3 0 -6 0.2 0.4
4 -1 6 5 0.9
4 -1 6 4.8 1
3 -1 6 0.5 0.7
3 -1 6 0.7 0.7
3 -1 6 0.5 0.6
-3 1 -6 1.6 0.6
2 -1 6 102.59 5.1
2 -1 6 85.69 5.1
2 -1 6 81.59 4.9
2 -1 6 78.29 4.7
-2 1 -6 90.19 5.2
-2 1 -6 96.39 4.8
1 -1 6 6.2 1
1 -1 6 8.5 0.8
-1 1 -6 8.1 0.8
-1 1 -6 6.8 1
0 -1 6 3.3 0.8
0 -1 6 4.5 0.5
0 1 -6 4.4 0.6
0 1 -6 3.5 0.8
-1 -1 6 8.9 1.1
1 1 -6 7.6 0.9
1 1 -6 9.9 1.2
-2 -1 6 19.8 1.7
2 1 -6 16.3 1.4
2 1 -6 19.9 1.8
3 1 -6 1.7 1
4 -2 6 1.8 0.8
-4 2 -6 0.3 1.5
3 -2 6 4.4 1
3 -2 6 4 0.7
3 -2 6 5.5 1.1
-3 2 -6 6.6 0.9
2 -2 6 48.7 3.1
2 -2 6 46.6 3.4
-2 2 -6 56.39 3
-2 2 -6 54.09 3.5
1 -2 6 20.3 1.4
1 -2 6 17.8 1.8
-1 2 -6 20.1 1.4
-1 2 -6 20.6 1.8
0 -2 6 -0.4 0.7
0 -2 6 -0.3 0.4
0 2 -6 -0.3 0.4
-1 -2 6 0.7 0.7
1 2 -6 0.7 0.7
1 2 -6 2.1 0.7
2 2 -6 4 1
2 2 -6 5.2 0.8
-4 3 -6 -0.8 1
3 -3 6 56.69 4.1
3 -3 6 61.19 3.9
-3 3 -6 73.59 4
2 -3 6 -0.9 0.7
2 -3 6 0.5 0.6
-2 3 -6 0.3 0.5
1 -3 6 26.3 2.3
1 -3 6 27.9 1.8
-1 3 -6 27.9 2.3
-1 3 -6 28.5 1.9
0 -3 6 145.99 8.6
0 3 -6 160.28 8.4
0 3 -6 159.78 8.6
-1 -3 6 30.4 2.3
1 3 -6 27.7 2.2
1 3 -6 32.1 2.3
2 3 -6 30.6 2.2
2 3 -6 29.9 2.5
3 -4 6 17.6 2.2
3 -4 6 18.3 1.9
-3 4 -6 23.2 1.9
2 -4 6 7.5 1
2 -4 6 7.7 1.4
-2 4 -6 6.7 0.9
1 -4 6 148.09 8.4
1 -4 6 127.49 8
-1 4 -6 162.88 8.4
-1 4 -6 157.88 8
0 -4 6 35 2.7
0 4 -6 32.8 2.3
0 4 -6 36.8 2.7
-1 -4 6 19.8 1.9
1 4 -6 15.9 1.7
1 4 -6 19.7 1.9
2 4 -6 0.2 0.9
2 4 -6 0.6 0.8
3 -5 6 -0.9 1.5
3 -5 6 -1.5 0.8
-3 5 -6 -1.4 1
2 -5 6 7.9 1.6
2 -5 6 6.7 1
-2 5 -6 5 1
1 -5 6 377.46 20
-1 5 -6 370.96 19.6
0 -5 6 6.8 1.4
0 5 -6 7.2 1.3
0 5 -6 4.3 0.9
-1 -5 6 3 1.1
1 5 -6 2.8 0.8
1 5 -6 2.8 1
1 -6 6 0.4 1.2
-1 6 -6 -0.1 0.8
0 -6 6 -1.1 1.1
0 6 -6 -0.2 0.7
1 6 -6 53.59 3.8
1 10 7 -1.4 0.7
-1 -10 -7 0.4 0.7
-1 -10 -7 0.2 0.8
2 9 7 14.5 1.2
1 9 7 3.1 0.7
1 9 7 1.9 0.9
1 9 7 3.2 0.6
-1 -9 -7 2.7 0.8
-1 -9 -7 2.7 0.9
0 9 7 16.2 1.3
0 9 7 14.8 1.4
0 -9 -7 17.4 1.9
0 -9 -7 16.1 1.5
-1 9 7 -1 0.7
3 8 7 43.5 2.7
2 8 7 0.1 0.4
2 8 7 0 0.5
1 8 7 0.1 0.4
1 8 7 -0.4 0.7
1 8 7 0.5 0.5
-1 -8 -7 0.2 0.6
-1 -8 -7 0.8 0.7
0 8 7 1.4 0.6
0 8 7 2.1 0.7
0 8 7 1.8 0.5
0 -8 -7 2.1 0.8
0 -8 -7 1.3 0.6
-1 8 7 14 1.3
-1 8 7 11.7 1.2
1 -8 -7 11.7 1.2
1 -8 -7 11 1.6
-2 8 7 -0.6 0.9
3 7 7 1.5 0.6
3 7 7 1.5 0.6
2 7 7 20.6 1.5
2 7 7 20 1.8
2 7 7 21.2 1.5
-2 -7 -7 23.6 1.8
-2 -7 -7 23 1.7
1 7 7 12.7 1.1
1 7 7 13.5 1.4
1 7 7 12.5 1.1
-1 -7 -7 13.4 1.4
-1 -7 -7 13.5 1.4
0 7 7 -0.8 0.4
0 7 7 0 0.4
0 7 7 -0.3 0.7
0 -7 -7 -0.2 0.8
0 -7 -7 0 0.5
-1 7 7 16.3 1.3
-1 7 7 14.9 1.3
-1 7 7 15.1 1.8
1 -7 -7 16.7 1.3
1 -7 -7 15.9 1.9
-2 7 7 17.6 1.9
-2 7 7 14.6 1.4
-2 7 7 17.3 1.5
2 -7 -7 13.3 1.2
2 -7 -7 17.5 2.1
2 -7 -7 13.9 1.5
3 6 7 13 1.2
3 6 7 14.2 1.4
2 6 7 8.9 0.9
2 6 7 8.1 0.9
2 6 7 9.2 1.1
1 6 7 65.09 3.6
1 6 7 66.29 3.6
1 6 7 63.99 3.8
-1 -6 -7 61.99 3.8
-1 -6 -7 64.39 3.8
0 6 7 51.49 2.7
0 6 7 49.4 2.7
0 6 7 45.9 3.1
0 -6 -7 46.4 3.1
0 -6 -7 42.4 2.8
-1 6 7 66.99 4.3
-1 6 7 75.69 3.9
-1 6 7 69.99 3.9
1 -6 -7 66.89 3.8
1 -6 -7 68.79 4.3
-2 6 7 17.9 1.9
-2 6 7 16.6 1.4
-2 6 7 20.9 1.5
2 -6 -7 16.2 1.2
2 -6 -7 16.3 2
-3 6 7 3.7 1.2
3 -6 -7 3.9 1.4
4 5 7 0.7 0.7
3 5 7 3 0.7
3 5 7 2.3 0.6
2 5 7 105.79 6.2
2 5 7 121.29 6.4
2 5 7 111.89 6.2
-2 -5 -7 124.99 6.6
1 5 7 9.9 0.8
1 5 7 11.3 1.2
1 5 7 10.3 0.8
-1 -5 -7 9.4 1.2
-1 -5 -7 9.9 1.1
0 5 7 17.3 1.6
0 5 7 16.3 1.1
0 5 7 17.2 1.1
0 -5 -7 16.2 1.6
0 -5 -7 13.9 1.3
-1 5 7 562.34 27
-1 5 7 496.85 27.3
-1 5 7 554.24 27
1 -5 -7 496.85 26.9
1 -5 -7 498.15 27.3
-2 5 7 0.1 0.6
-2 5 7 -0.2 0.5
-2 5 7 -0.9 0.8
2 -5 -7 0 0.3
2 -5 -7 0.2 0.9
-3 5 7 1 0.8
-3 5 7 0.4 0.7
3 -5 -7 1.5 0.3
3 -5 -7 1.4 0.8
4 4 7 4.5 0.9
4 4 7 5.6 0.9
3 4 7 21.9 1.7
3 4 7 23.2 1.7
2 4 7 0.8 0.5
2 4 7 0.5 0.5
2 4 7 0.6 0.5
-2 -4 -7 0.8 0.7
1 4 7 5.9 0.6
1 4 7 5.7 0.9
1 4 7 4.8 0.6
0 4 7 841.42 41.4
0 4 7 855.71 41.3
0 4 7 799.12 41.6
0 -4 -7 803.82 41.6
0 -4 -7 719.63 41.4
-1 4 7 10.3 1.2
-1 4 7 10.6 0.9
-1 4 7 13.1 1
1 -4 -7 10.2 1.2
1 -4 -7 7.8 0.8
-2 4 7 0 0.7
-2 4 7 -0.2 0.5
-2 4 7 -0.4 0.5
2 -4 -7 -0.1 0.2
2 -4 -7 -0.2 0.8
4 3 7 0.7 0.7
4 3 7 0.2 0.6
3 3 7 0.3 0.5
3 3 7 -0.2 0.6
2 3 7 40.4 2.5
2 3 7 35.8 2.2
2 3 7 37.5 2.3
-2 -3 -7 39.8 2.6
1 3 7 74.59 4.1
1 3 7 71.89 4
1 3 7 74.99 4.3
-1 -3 -7 76.79 4.3
0 3 7 264.07 14.7
0 3 7 280.77 14.5
0 3 7 288.07 14.4
-1 3 7 40.5 2.9
-1 3 7 47.9 2.5
-1 3 7 46.3 2.6
-2 3 7 15.3 1.3
-2 3 7 15.5 1.5
-2 3 7 14.4 1.6
-2 3 7 15.2 1.2
-3 3 7 9 1.4
4 2 7 2.1 0.7
4 2 7 1.2 0.8
3 2 7 13.6 1.3
3 2 7 13.1 1.3
3 2 7 12.8 1.3
2 2 7 13.2 1.3
2 2 7 9.3 1
2 2 7 11.6 1.1
-2 -2 -7 13.5 1.5
1 2 7 238.18 12.6
1 2 7 228.88 12.5
1 2 7 245.88 12.8
-1 -2 -7 251.27 12.8
0 2 7 15.7 1.1
0 2 7 15.1 1.5
0 2 7 17.3 1
0 -2 -7 15.2 1.3
-1 2 7 0.1 0.3
-1 2 7 -0.7 0.6
1 -2 -7 -0.1 0.8
1 -2 -7 -0.2 0.4
-2 2 7 65.59 4.1
-2 2 7 67.19 4.1
2 -2 -7 67.49 3.7
2 -2 -7 77.69 4.3
-3 2 7 3.1 0.9
3 -2 -7 0.7 0.9
3 -2 -7 1.5 0.4
4 1 7 1.9 0.8
4 1 7 1.9 0.9
3 1 7 0.8 0.7
3 1 7 0.5 0.5
3 1 7 1.5 0.5
2 1 7 -0.6 0.6
2 1 7 2.6 0.7
-2 -1 -7 1.8 0.8
1 1 7 29.4 1.9
1 1 7 29 2.1
-1 -1 -7 29.3 2.2
0 1 7 -0.4 0.6
0 1 7 0.4 0.4
0 -1 -7 -0.5 0.5
-1 1 7 55.99 3
-1 1 7 52.59 3.4
1 -1 -7 54.89 3.2
1 -1 -7 55.19 3.3
-2 1 7 8.2 1.1
2 -1 -7 9.8 0.9
2 -1 -7 8.2 1.1
-3 1 7 3.3 0.9
3 -1 -7 1.8 0.7
3 -1 -7 1.5 1.1
4 0 7 1.3 0.7
4 0 7 1.6 1
3 0 7 5.9 0.8
3 0 7 5.8 1
3 0 7 5.3 0.9
2 0 7 13.9 1.5
2 0 7 11 1.2
1 0 7 -1.3 0.6
1 0 7 0 0.4
-1 0 -7 -1.1 0.6
0 0 7 8.4 0.8
0 0 7 7.3 1
0 0 -7 8.8 0.9
0 0 -7 6.5 1
-1 0 7 64.89 4
1 0 -7 66.69 3.8
1 0 -7 65.19 3.9
-2 0 7 10.3 1.3
2 0 -7 10.9 1.4
2 0 -7 7.7 1
3 0 -7 4 1.2
3 -1 7 -0.6 0.8
3 -1 7 -1.7 0.7
2 -1 7 4.6 1.1
2 -1 7 5.5 0.9
-2 1 -7 6.7 1.2
1 -1 7 6.4 0.8
1 -1 7 5.6 1.1
-1 1 -7 5.1 1.1
-1 1 -7 7.2 0.8
0 -1 7 30.2 1.8
0 -1 7 26.4 2.2
0 1 -7 30.3 1.9
0 1 -7 27.3 2.2
-1 -1 7 -0.6 0.7
1 1 -7 -0.3 0.5
1 1 -7 0.4 0.6
2 1 -7 3.7 0.7
2 1 -7 4.1 0.9
3 -2 7 17 1.7
3 -2 7 14.9 1.8
2 -2 7 6.4 1.3
2 -2 7 8.2 1
-2 2 -7 8.8 1.2
-2 2 -7 6.6 1.2
1 -2 7 0.6 0.9
1 -2 7 0.1 0.5
-1 2 -7 0.5 0.4
-1 2 -7 -0.4 0.9
0 -2 7 -0.2 0.9
0 2 -7 1.2 0.6
0 2 -7 1.3 0.7
-1 -2 7 1.1 0.9
1 2 -7 2.4 0.7
1 2 -7 1.3 0.6
2 2 -7 12.2 1.4
2 2 -7 14.3 1.8
3 -3 7 2.7 1
3 -3 7 0.9 1.1
2 -3 7 1.3 1.1
2 -3 7 1.6 0.7
-2 3 -7 1.4 0.6
1 -3 7 2.5 1.1
1 -3 7 2 0.7
-1 3 -7 3.8 1
-1 3 -7 3.5 0.7
0 -3 7 12.2 1.6
0 3 -7 14.3 1.3
0 3 -7 14.1 1.7
-1 -3 7 -0.5 0.8
1 3 -7 0.2 0.6
1 3 -7 -0.6 0.7
2 3 -7 21.1 2.2
3 -4 7 -0.1 1.2
3 -4 7 0.2 0.9
2 -4 7 0.3 0.9
2 -4 7 0.4 0.7
-2 4 -7 -0.7 0.7
1 -4 7 23.9 2.7
-1 4 -7 32 2.6
-1 4 -7 30.5 2.1
0 -4 7 16.5 2.1
0 4 -7 18.6 1.6
0 4 -7 16.7 2
-1 -4 7 3.4 1.1
1 4 -7 2.8 1
1 4 -7 2.8 0.9
-2 5 -7 92.49 5.3
1 -5 7 1.4 1.3
-1 5 -7 1.4 0.8
0 -5 7 25.4 2.5
0 5 -7 23.8 2.4
0 5 -7 22.6 2
1 5 -7 0.9 0.8
-1 6 -7 -2.1 0.8
1 9 8 0.2 0.7
1 9 8 0 0.5
1 9 8 0.6 0.5
-1 -9 -8 0 0.7
-1 -9 -8 1.2 0.7
0 9 8 6.1 1.4
0 9 8 7.5 0.9
0 -9 -8 6.4 1.4
0 -9 -8 5.9 1.1
2 8 8 4.7 0.7
2 8 8 4.7 0.7
1 8 8 21.5 1.5
1 8 8 18.9 1.5
1 8 8 22.7 1.9
-1 -8 -8 22 1.9
-1 -8 -8 22.8 1.8
0 8 8 2.1 0.6
0 8 8 1.2 0.6
0 8 8 2.6 0.9
0 -8 -8 0.8 0.6
0 -8 -8 2.1 0.9
-1 8 8 -0.1 0.6
-1 8 8 0.4 1
-1 8 8 0.5 0.6
1 -8 -8 0.2 1
1 -8 -8 0.7 0.6
3 7 8 0.8 0.5
2 7 8 12.9 1.4
2 7 8 10.2 1.1
2 7 8 11 1.1
1 7 8 -0.1 0.4
1 7 8 -0.3 0.3
1 7 8 0.2 0.7
-1 -7 -8 0.3 0.7
-1 -7 -8 1.2 0.6
0 7 8 30.4 1.9
0 7 8 30.6 2.3
0 7 8 30.3 1.9
0 -7 -8 27 2
0 -7 -8 27.1 2.3
-1 7 8 -0.5 0.6
-1 7 8 -0.2 0.6
-1 7 8 -0.1 0.9
1 -7 -8 0.2 0.5
1 -7 -8 0.5 0.9
-2 7 8 7.1 1
3 6 8 1.3 0.6
3 6 8 1.9 0.6
2 6 8 6.5 0.9
2 6 8 6.1 0.8
2 6 8 6.7 0.8
1 6 8 16.6 1.1
1 6 8 14.3 1.5
1 6 8 14.8 1.1
-1 -6 -8 14 1.5
-1 -6 -8 15.4 1.5
0 6 8 5 0.6
0 6 8 5 0.6
0 6 8 5.3 1
0 -6 -8 4.1 0.7
0 -6 -8 3.4 1
-1 6 8 0.4 0.8
-1 6 8 -0.7 0.5
-1 6 8 0.5 0.5
1 -6 -8 0.2 0.9
1 -6 -8 0.4 0.4
-2 6 8 8.7 1
-2 6 8 10.6 1.2
-2 6 8 9 1.4
2 -6 -8 8.6 0.9
2 -6 -8 8.8 1.4
3 5 8 7.7 1
3 5 8 11.3 1.1
2 5 8 8.6 1.1
2 5 8 7.4 0.8
2 5 8 6.9 0.8
-2 -5 -8 6.9 1.1
1 5 8 35.7 2.2
1 5 8 37.1 2.1
1 5 8 37.3 2.5
0 5 8 42.2 2.8
0 5 8 44.3 2.3
0 5 8 36.1 2.4
0 -5 -8 45.9 2.8
0 -5 -8 36.3 2.5
-1 5 8 4.7 0.7
-1 5 8 4.9 0.6
-1 5 8 3 1
1 -5 -8 3 0.6
1 -5 -8 3 1
-2 5 8 17.6 1.4
-2 5 8 16 1.8
2 -5 -8 16 1.9
2 -5 -8 16.7 1.1
4 4 8 2.3 0.8
3 4 8 51.69 3.1
3 4 8 51.09 3.1
2 4 8 18.8 1.6
2 4 8 18.4 1.3
2 4 8 18 1.3
-2 -4 -8 15.5 1.9
1 4 8 29.2 1.7
1 4 8 28.8 1.9
1 4 8 25.7 2.2
-1 -4 -8 31.3 2.2
0 4 8 225.98 12.1
0 4 8 240.68 11.7
0 4 8 211.18 11.8
-1 4 8 4.5 1
-1 4 8 5.8 0.7
-2 4 8 2.9 0.9
-2 4 8 2.9 0.7
4 3 8 22.1 1.9
3 3 8 0.6 0.7
3 3 8 1.7 0.6
2 3 8 0.6 0.5
2 3 8 0.4 0.6
2 3 8 0.6 0.4
-2 -3 -8 -0.5 0.7
1 3 8 749.62 39
1 3 8 732.33 38.9
1 3 8 762.02 39.3
-1 -3 -8 783.52 39.3
0 3 8 -0.3 0.4
0 3 8 -0.7 0.7
0 -3 -8 0 0.5
-1 3 8 5.6 1.1
-1 3 8 8.2 0.9
1 -3 -8 7.5 0.9
-2 3 8 24.6 2.1
2 -3 -8 22.5 1.5
4 2 8 1.7 1.1
3 2 8 2.2 0.7
3 2 8 3.4 0.9
3 2 8 3.1 0.8
2 2 8 234.98 13
2 2 8 237.58 12.9
-2 -2 -8 260.77 13.2
1 2 8 105.89 6.1
1 2 8 106.69 5.9
-1 -2 -8 111.59 6.1
0 2 8 12.2 1.5
0 2 8 14 1.1
0 -2 -8 13.7 1.3
-1 2 8 44.6 2.5
-1 2 8 41.7 2.9
1 -2 -8 41.6 2.6
-2 2 8 0.4 0.8
2 -2 -8 1 0.4
3 1 8 2.5 0.8
3 1 8 2.9 0.9
2 1 8 232.68 12.8
2 1 8 240.08 13
-2 -1 -8 254.97 13.2
1 1 8 39.8 2.4
1 1 8 36.1 2.6
-1 -1 -8 38.6 2.7
0 1 8 1.8 0.9
0 1 8 2.3 0.5
0 -1 -8 2.4 0.7
-1 1 8 46.4 3.1
1 -1 -8 46.2 2.9
-2 1 8 3 1
2 -1 -8 3.6 0.6
3 0 8 40.3 3
3 0 8 41.2 2.8
2 0 8 -0.2 0.8
2 0 8 0.5 0.6
-2 0 -8 -1.8 0.8
1 0 8 -0.3 0.5
1 0 8 -1.1 0.7
-1 0 -8 -0.5 0.8
0 0 8 74.29 4.1
0 0 8 70.09 4.5
0 0 -8 76.79 4.4
-1 0 8 -0.6 0.7
1 0 -8 -0.2 0.6
2 0 -8 0.1 0.5
3 -1 8 8.4 1.4
3 -1 8 8.2 1.2
2 -1 8 -0.2 0.6
2 -1 8 -0.4 0.9
-2 1 -8 -1 0.9
1 -1 8 17.9 1.5
1 -1 8 16.2 1.8
-1 1 -8 17 1.9
0 -1 8 38.6 2.9
0 1 -8 42.2 2.9
-1 -1 8 10.1 1.4
1 1 -8 14 1.4
3 -2 8 -0.6 0.8
3 -2 8 -1.6 0.9
2 -2 8 -0.2 1
2 -2 8 0.3 0.7
1 -2 8 42.4 2.7
1 -2 8 40.4 3.1
-1 2 -8 43.7 3.1
0 -2 8 2.5 0.9
0 2 -8 3.3 0.9
-1 -2 8 0.3 0.9
1 2 -8 -0.1 0.7
3 -3 8 2.9 1
3 -3 8 1.7 1.3
2 -3 8 4.6 1.4
2 -3 8 5.3 0.9
1 -3 8 -2.4 1
-1 3 -8 -0.1 0.9
0 -3 8 1.1 1.1
0 3 -8 1.6 0.9
-1 -3 8 37.3 2.9
1 3 -8 36.3 2.8
1 -4 8 2.4 1.4
-1 4 -8 5.4 1.5
0 -4 8 -0.1 1.1
0 4 -8 -0.6 0.9
-1 -4 8 20 3
0 5 -8 3.2 1.4
2 8 9 6.7 0.9
1 8 9 3.6 1
1 8 9 4.3 0.7
1 8 9 3.8 0.7
-1 -8 -9 4.1 1
-1 -8 -9 5.1 0.9
0 8 9 3.9 0.7
0 8 9 3.8 1.2
0 -8 -9 2.1 0.9
0 -8 -9 3.8 0.9
-1 8 9 51.09 3.1
2 7 9 10.4 1.1
2 7 9 11.4 1.4
2 7 9 9.2 1.1
1 7 9 0.7 0.5
1 7 9 0.3 0.8
1 7 9 0.3 0.5
-1 -7 -9 0.8 0.9
-1 -7 -9 1.4 0.6
0 7 9 5.9 0.7
0 7 9 5.6 0.8
0 7 9 4.6 1.1
0 -7 -9 5.3 0.8
0 -7 -9 4.4 1.1
-1 7 9 -0.1 0.5
-1 7 9 -0.5 0.4
-1 7 9 0.8 1
1 -7 -9 1.1 1.1
3 6 9 11.4 1.2
2 6 9 0.5 0.4
2 6 9 -0.1 0.5
2 6 9 -0.3 0.6
-2 -6 -9 0.5 0.8
1 6 9 16.7 1.2
1 6 9 13.9 1.3
1 6 9 16.3 1.6
0 6 9 0 0.4
0 6 9 -0.7 0.5
0 6 9 0.4 0.8
0 -6 -9 0.2 0.9
0 -6 -9 0.2 0.6
-1 6 9 1.4 0.9
-1 6 9 0.9 0.6
1 -6 -9 1.8 1
1 -6 -9 0.6 0.5
3 5 9 3.4 0.7
3 5 9 3.2 0.8
2 5 9 23.2 1.6
2 5 9 22.1 1.7
2 5 9 23.1 2
-2 -5 -9 24.4 2.2
1 5 9 -0.2 0.4
1 5 9 0.8 0.6
1 5 9 0 0.7
-1 -5 -9 0.4 0.7
0 5 9 13.5 1.6
0 5 9 10.5 1.1
-1 5 9 8.7 1.3
-1 5 9 11.7 1.1
-2 5 9 13.8 1.8
-2 5 9 13.4 1.3
3 4 9 1.3 0.7
2 4 9 5.6 0.8
2 4 9 6.5 1
-2 -4 -9 7 1.1
1 4 9 5.2 1
1 4 9 4.8 0.8
-1 -4 -9 6.2 1
0 4 9 33.1 2.1
0 4 9 30.8 2.4
0 -4 -9 34.5 2.3
-1 4 9 8.6 1
-1 4 9 8.6 1.3
1 -4 -9 8.8 1.1
-2 4 9 1 0.9
2 -4 -9 1.5 0.4
3 3 9 7.5 1
2 3 9 23.3 2.1
2 3 9 27.2 1.9
-2 -3 -9 30.6 2.4
1 3 9 10.2 1.2
1 3 9 13.7 1.6
-1 -3 -9 14.1 1.6
0 3 9 23.3 2.1
0 3 9 24.9 1.7
0 -3 -9 25 1.9
-1 3 9 2.6 0.9
-1 3 9 2 0.6
1 -3 -9 2.6 0.6
-2 3 9 4.6 1.1
2 -3 -9 5.9 0.8
3 2 9 1.5 0.8
3 2 9 2.5 0.8
2 2 9 274.87 14.8
2 2 9 280.37 15
-2 -2 -9 286.87 15.1
1 2 9 0.5 0.8
1 2 9 -0.4 0.5
-1 -2 -9 0.2 0.7
0 2 9 16.5 1.3
0 2 9 14.8 1.8
0 -2 -9 16.7 1.6
-1 2 9 3.9 1
1 -2 -9 3.7 0.7
-2 2 9 2.5 0.9
3 1 9 201.88 11
3 1 9 197.28 10.8
2 1 9 19.6 1.9
2 1 9 20.4 1.7
-2 -1 -9 18.1 2.1
1 1 9 0.9 0.6
1 1 9 1.1 0.8
-1 -1 -9 0.5 0.8
0 1 9 43.6 2.6
0 1 9 42.5 3
0 -1 -9 47 3
-1 1 9 0.3 0.8
1 -1 -9 -0.2 0.6
3 0 9 105.59 6.3
3 0 9 106.79 6.1
2 0 9 13.6 1.4
2 0 9 13.9 1.8
-2 0 -9 11.5 1.6
1 0 9 15 1.3
1 0 9 13.9 1.8
-1 0 -9 14.3 1.8
0 0 9 13.8 1.8
0 0 -9 15 1.7
-1 0 9 -0.7 0.9
1 0 -9 0.3 0.6
3 -1 9 1.1 0.8
3 -1 9 -0.4 1
2 -1 9 -0.4 0.9
2 -1 9 0.2 0.7
-2 1 -9 0.6 1.1
1 -1 9 64.19 4.3
1 -1 9 62.79 3.8
-1 1 -9 69.99 4.3
0 -1 9 4.2 1.2
0 1 -9 4.1 1
-1 -1 9 7.9 1.3
1 1 -9 6.4 1.2
2 -2 9 25.3 2.6
2 -2 9 26.3 2
1 -2 9 4.4 1.3
-1 2 -9 5.5 1.2
0 -2 9 1.6 1.1
0 2 -9 2.1 1
-1 -2 9 26.9 2.5
-1 3 -9 4.5 1.3
0 3 -9 3.8 1.2
1 8 10 0.8 0.5
2 7 10 0.5 0.7
-2 -7 -10 1.8 0.9
1 7 10 9.9 1.4
2 6 10 0 0.7
-2 -6 -10 0.7 0.8
1 6 10 34 2.3
1 6 10 40.5 2.8
-1 -6 -10 39.8 2.8
0 6 10 0.2 0.5
0 6 10 0.2 0.9
-1 6 10 10.1 1.2
2 5 10 0.4 0.7
2 5 10 0 0.5
-2 -5 -10 0 0.7
1 5 10 0.7 0.6
1 5 10 1.1 0.8
-1 -5 -10 1.7 0.8
0 5 10 3.9 1.1
0 5 10 3.9 0.7
0 -5 -10 5.2 0.9
-1 5 10 20 1.6
2 4 10 0.2 0.6
2 4 10 0.2 0.8
-2 -4 -10 0.7 0.8
1 4 10 4.2 0.8
1 4 10 4.7 1.1
-1 -4 -10 5.1 1
0 4 10 6.1 1.2
0 4 10 6.3 0.8
0 -4 -10 5.8 0.9
-1 4 10 52.39 3.1
1 -4 -10 51.09 3.4
2 3 10 -0.1 0.7
2 3 10 0.4 0.6
-2 -3 -10 0.2 0.9
1 3 10 22.4 1.7
1 3 10 22.3 2.1
-1 -3 -10 22.1 2
0 3 10 1.9 0.6
0 3 10 3.2 1
0 -3 -10 2.8 0.8
-1 3 10 1.3 1
1 -3 -10 1.8 0.8
3 2 10 13.6 1.8
2 2 10 5 1.1
2 2 10 3.7 0.8
-2 -2 -10 5.6 1.2
1 2 10 14.3 1.8
1 2 10 16.1 1.4
-1 -2 -10 14.8 1.8
0 2 10 1.5 0.6
0 2 10 1 0.9
0 -2 -10 0.8 0.7
-1 2 10 6.7 1.2
3 1 10 38.6 3
2 1 10 0.7 0.9
2 1 10 0.7 0.7
-2 -1 -10 0 0.9
1 1 10 6.7 0.9
1 1 10 5.5 1.2
-1 -1 -10 8.2 1.3
0 1 10 1.6 1
0 -1 -10 2.1 0.9
-1 1 10 5.7 1.2
2 0 10 7.5 1.1
2 0 10 6.9 1.4
-2 0 -10 7.9 1.4
1 0 10 15.5 2
1 0 10 15.1 1.5
-1 0 -10 17.4 2
0 0 10 0.5 1
0 0 -10 -0.4 0.8
-1 0 10 -0.9 1
2 -1 10 13.3 1.5
1 -1 10 0.6 1.2
-1 1 -10 0.1 0.9
-1 2 -10 1.8 1
-2 -5 -11 57.49 4
0 5 11 2.6 0.7
2 4 11 1.7 1
-2 -4 -11 2.5 1
1 4 11 14.3 1.5
-1 -4 -11 15.1 1.8
0 4 11 26.6 1.9
-2 -3 -11 1.8 1
1 3 11 5.5 0.8
-1 -3 -11 4 1.1
0 3 11 52.09 3.1
2 2 11 1.8 0.9
-2 -2 -11 3.6 1.1
1 2 11 23.8 1.9
-1 -2 -11 26 2.4
2 1 11 0.2 0.7
-2 -1 -11 1.6 1.1
-1 -1 -11 0.1 1
2 0 11 0.1 1

_iucr_refine_instructions_details 
;
TITL mo_DCA_final_0m_a.res in P-1
REM transformed to space group :
CELL 0.71073 3.8872 8.5235 9.2061 71.6 78.595 90.838
ZERR 2 0.0089 0.018 0.0207 0.062 0.115 0.064
LATT 1
SFAC C H N
UNIT 16 8 2
 
L.S. 4
PLAN  -1 0 0
SIZE 0.3 0.25 0.8
TEMP 16.85
HTAB
BOND $H
CONF
fmap 2
acta
OMIT 0 52
REM <olex2.extras>
REM <HklSrc "%.\\new.hkl">
REM </olex2.extras>
 
WGHT    0.074100    0.031300
FVAR       1.58963
N1    3    0.327021    0.194504   -0.733094    11.00000    0.08334    0.06101 =
         0.05919   -0.03354   -0.00352   -0.01367
C1    1   -0.064366    0.154456   -0.179915    11.00000    0.04204    0.03608 =
         0.04337   -0.00209   -0.00484    0.00208
AFIX  43
H1    2   -0.202736    0.055167   -0.127350    11.00000   -1.20000
AFIX   0
C2    1    0.079517    0.193754   -0.336017    11.00000    0.04043    0.03266 =
         0.04251   -0.01067   -0.00952    0.00433
AFIX  43
H2    2    0.039842    0.120507   -0.388562    11.00000   -1.20000
AFIX   0
C3    1    0.290199    0.346062   -0.419444    11.00000    0.03039    0.03041 =
         0.03357   -0.00970   -0.00899    0.00961
C4    1    0.442075    0.392191   -0.581438    11.00000    0.03264    0.03208 =
         0.03425   -0.01323   -0.00872    0.00774
C5    1    0.649888    0.542694   -0.664081    11.00000    0.03005    0.03380 =
         0.03215   -0.01081   -0.00876    0.01037
C6    1    1.004844    0.736406   -0.902855    11.00000    0.04716    0.04935 =
         0.03202   -0.00661   -0.00163    0.00844
AFIX  43
H6    2    1.104423    0.764879   -1.009220    11.00000   -1.20000
AFIX   0
C7    1    0.378259    0.279976   -0.666387    11.00000    0.04492    0.04288 =
         0.03650   -0.01458   -0.00326   -0.00071
C8    1    0.803152    0.590166   -0.828125    11.00000    0.04375    0.04288 =
         0.03353   -0.01436   -0.00621    0.00809
AFIX  43
H8    2    0.764663    0.520456   -0.884302    11.00000   -1.20000
AFIX   0
HKLF 4
 
REM  mo_DCA_final_0m_a.res in P-1
REM R1 =  0.0428 for     883 Fo > 4sig(Fo)  and  0.0548 for all    1092 data
REM     82 parameters refined using      0 restraints
 
END  
     
WGHT      0.0751      0.0302 

REM No hydrogen bonds found for HTAB generation

REM Highest difference peak  0.114,  deepest hole -0.233,  1-sigma level  0.053
Q1    1   0.1699  0.8607  0.7706  11.00000  0.05    0.11

  REM The information below was added by Olex2.
  REM
  REM R1 = 0.0428 for 883 Fo > 4sig(Fo) and 0.0548 for all 4930 data
  REM n/a parameters refined using n/a restraints
  REM Highest difference peak 0.11, deepest hole -0.23
  REM Mean Shift 0, Max Shift 0.001.

  REM +++ Tabular Listing of Refinement Information +++
  REM R1_all = 0.0548
  REM R1_gt = 0.0428
  REM wR_ref = 0.1261
  REM GOOF = 1.070
  REM Shift_max = 0.001
  REM Shift_mean = 0
  REM Reflections_all = 4930
  REM Reflections_gt = 883
  REM Parameters = n/a
  REM Hole = -0.23
  REM Peak = 0.11
  REM Flack = n/a

  
;
_olex2_submission_special_instructions 'No special instructions were received'
_exptl_crystal_recrystallization_method 
'Re-crystallisation from solvent: Toluene'
